version 2
run General-0-20190514-00:49:57-16959
attr configname General
attr datetime 20190514-00:49:57
attr experiment General
attr inifile omnetpp.ini
attr iterationvars ""
attr iterationvarsf ""
attr measurement ""
attr network Network
attr processid 16959
attr repetition 0
attr replication #0
attr resultdir results
attr runnumber 0
attr seedset 0
param Network.gen.generationInterval exponential(0.1)
param Network.nodeTx.gen.generationInterval exponential(0.15)
param Network.nodeRx.queue.serviceTime exponential(0.1)
param Network.nodeTx.queue.serviceTime exponential(0.1)
param Network.queue.serviceTime exponential(0.1)
param Network.nodeTx.gen.packetByteSize 12500
param Network.queue.bufferSize 200
param Network.nodeRx.queue.bufferSize 200
param Network.nodeTx.queue.bufferSize 2000000

vector 0 Network.nodeTx.queue "Buffer Size" ETV
vector 1 Network.queue "Buffer Size" ETV
vector 2 Network.nodeRx.queue "Buffer Size" ETV
vector 3 Network.nodeRx.sink Delay ETV
vector 4 Network.nodeRx.queue "Packets Lost" ETV
0	2	0.119381175685	1
0	8	0.254165233958	1
0	17	0.442554847665	1
0	31	0.721495479476	1
0	37	0.859978949197	1
0	52	1.15271074958	1
0	58	1.270790920577	1
0	71	1.552635528707	1
0	76	1.635292801708	1
0	87	1.781843765667	1
0	95	1.937567660767	1
0	102	2.010336885325	1
0	107	2.096664764857	1
0	113	2.149638635728	1
0	129	2.483167299033	1
0	132	2.491924999397	1
0	149	2.989161841386	1
0	152	3.036915262512	1
0	157	3.109455578254	1
0	165	3.206872530492	1
0	177	3.442206948135	1
0	189	3.693038628184	1
0	197	3.805939745181	1
0	202	3.904022130264	1
0	213	4.029937058199	1
0	216	4.104767859551	1
0	233	4.494505972428	1
0	245	4.765761362069	1
0	248	4.776814165389	1
0	250	4.838550864825	2
0	252	4.852225018744	3
0	263	5.00891689499	2
0	265	5.01198073325	3
0	271	5.080867953838	3
0	283	5.348991103354	2
0	305	5.821516592655	1
0	315	6.047384231451	1
0	318	6.070068859501	1
0	333	6.376115998192	1
0	343	6.682249830579	1
0	357	7.25903311095	1
0	362	7.355289486852	1
0	375	7.596075420411	1
0	385	7.838175731645	1
0	388	7.931015150589	1
0	399	8.041259813767	1
0	411	8.268740209866	1
0	419	8.439131051123	1
0	422	8.458012212539	1
0	435	8.649296367873	1
0	445	8.802511149025	1
0	453	8.933359328281	1
0	458	8.956568780356	1
0	465	9.072193979126	1
0	481	9.506357050824	1
0	491	9.719561752838	1
0	499	9.830235846601	1
0	502	9.847027770696	1
0	506	9.92736262873	2
0	513	10.023616834035	2
0	519	10.069708886858	2
0	521	10.100639379163	3
0	533	10.323877603026	2
0	545	10.52417113072	1
0	553	10.615533494197	1
0	559	10.652140767807	1
0	567	10.778190973649	1
0	569	10.799982677743	2
0	571	10.802827963123	3
0	577	10.861593584725	3
0	585	11.005800725585	3
0	587	11.030121199002	4
0	599	11.172170700578	3
0	601	11.209886990389	4
0	613	11.353819186994	3
0	615	11.42710274439	4
0	641	11.858789997582	1
0	655	12.208127003714	1
0	663	12.379897846919	1
0	668	12.469559758442	1
0	673	12.5363875327	1
0	681	12.678811720225	1
0	689	12.764991581236	1
0	703	13.11394424049	1
0	711	13.293360410409	1
0	714	13.309044594275	1
0	718	13.318361887845	2
0	739	13.843393940513	1
0	747	14.008230810646	1
0	757	14.167055930369	1
0	765	14.333645547222	1
0	770	14.361759457125	1
0	774	14.397190463037	2
0	779	14.46370106733	2
0	781	14.484405370594	3
0	793	14.692761774063	2
0	799	14.749606068705	2
0	807	14.890015302671	2
0	815	14.957830611705	2
0	817	15.016797495301	3
0	827	15.14346166433	2
0	829	15.149339137792	3
0	837	15.235937784413	3
0	845	15.386818435188	3
0	871	16.054992962114	1
0	883	16.533934958422	1
0	886	16.550080224645	1
0	893	16.708754186648	1
0	899	16.743899414464	1
0	907	16.895102301277	1
0	909	16.921489333091	2
0	933	17.725504385627	1
0	941	17.884315792891	1
0	951	18.015103170935	1
0	954	18.058915250925	1
0	961	18.139174952487	1
0	969	18.233366189636	1
0	975	18.329933339876	1
0	979	18.371974891148	2
0	989	18.518504502259	1
0	991	18.544473620681	2
0	995	18.606348805169	3
0	1001	18.623892116638	3
0	1009	18.792367361868	3
0	1019	18.95257819144	2
0	1023	19.009811567946	3
0	1029	19.032118408334	3
0	1041	19.258113708325	2
0	1043	19.290945797801	3
0	1067	19.739024281579	1
0	1072	19.80802637524	1
0	1083	19.970966782372	1
0	1095	20.229016531029	1
0	1098	20.231066217794	1
0	1100	20.246387950023	2
0	1107	20.392653240146	2
0	1123	20.665626078039	1
0	1133	20.833598232902	1
0	1136	20.848753449198	1
0	1155	21.38479170505	1
0	1167	21.947146423988	1
0	1179	22.262944619107	1
0	1184	22.357795108566	1
0	1193	22.464682647566	1
0	1209	23.028971740242	1
0	1212	23.037570779206	1
0	1219	23.176842553741	1
0	1225	23.266834586737	1
0	1237	23.46847137756	1
0	1240	23.471499896782	1
0	1242	23.477496341641	2
0	1248	23.564928099971	3
0	1253	23.614789636116	3
0	1279	24.198525154543	1
0	1282	24.21773366934	1
0	1284	24.284546588628	2
0	1289	24.337223002035	2
0	1297	24.43556994469	2
0	1299	24.454528240154	3
0	1311	24.629559269136	2
0	1313	24.686964411465	3
0	1335	25.005599991015	1
0	1338	25.085832647379	1
0	1355	25.461419414842	1
0	1358	25.471364025064	1
0	1360	25.508023342276	2
0	1371	25.684901771336	1
0	1379	25.809828298746	1
0	1385	25.935242928542	1
0	1401	26.235729006918	1
0	1404	26.281991232933	1
0	1411	26.388678423516	1
0	1417	26.499792266083	1
0	1433	26.87262961963	1
0	1436	26.887427165893	1
0	1451	27.268472842087	1
0	1459	27.397157188248	1
0	1462	27.410172760599	1
0	1479	27.8075611499	1
0	1482	27.856362212229	1
0	1487	27.913896244344	1
0	1489	27.915306356944	2
0	1497	28.080433243458	2
0	1515	28.357532391108	1
0	1518	28.378731998142	1
0	1525	28.534999096269	1
0	1537	28.723989167785	1
0	1551	29.000181538508	1
0	1554	29.051429663562	1
0	1556	29.097557322126	2
0	1561	29.127909887911	2
0	1569	29.203989906399	2
0	1575	29.336459262693	2
0	1583	29.457178872663	2
0	1585	29.460225741482	3
0	1587	29.48726357928	4
0	1603	29.752124740142	2
0	1611	29.821384374549	2
0	1613	29.822090355623	3
0	1615	29.845841581558	4
0	1627	30.015736702854	3
0	1633	30.142199157676	3
0	1637	30.189407406804	4
0	1649	30.371883704819	3
0	1661	30.571197385882	2
0	1667	30.622249396617	2
0	1687	31.113520873274	1
0	1692	31.198706496296	1
0	1697	31.241609642172	1
0	1709	31.453263303566	1
0	1719	31.58202224874	1
0	1724	31.657673819728	1
0	1735	31.792162450346	1
0	1747	32.131722486725	1
0	1755	32.25910560846	1
0	1765	32.411904417963	1
0	1768	32.449767416897	1
0	1785	32.782993451668	1
0	1797	33.240835700201	1
0	1805	33.411776894731	1
0	1810	33.500670498849	1
0	1817	33.590127407998	1
0	1831	33.871146389977	1
0	1845	34.447597377464	1
0	1853	34.627933162551	1
0	1856	34.646462159655	1
0	1860	34.699415179646	2
0	1871	34.917937963431	1
0	1887	35.170076294113	1
0	1890	35.249684668605	1
0	1895	35.325437480768	1
0	1907	35.494229783295	1
0	1921	35.813654692705	1
0	1924	35.856766264116	1
0	1931	35.987346638065	1
0	1937	36.043707464426	1
0	1953	36.363932031923	1
0	1965	36.868587599881	1
0	1973	37.045495039928	1
0	1983	37.178674251494	1
0	1993	37.372460641814	1
0	2001	37.534135874434	1
0	2011	37.638505793569	1
0	2019	37.752785959263	1
0	2035	38.221606212912	1
0	2038	38.260914799163	1
0	2045	38.41583435076	1
0	2051	38.491180970499	1
0	2059	38.573890369019	1
0	2065	38.718558403843	1
0	2077	38.858418835904	1
0	2084	38.955034542152	1
0	2086	38.957941509354	2
0	2091	39.053210666699	2
0	2097	39.107049749079	2
0	2109	39.295906276669	1
0	2117	39.457804306467	1
0	2123	39.508754016354	1
0	2131	39.560143960059	1
0	2133	39.632689313047	2
0	2145	39.777045571413	1
0	2157	39.984492452394	1
0	2162	40.068486612905	1
0	2177	40.384603753648	1
0	2180	40.406439850415	1
0	2182	40.422721915189	2
0	2184	40.475855535026	3
0	2189	40.490393948213	3
0	2197	40.616977219102	3
0	2199	40.682531421168	4
0	2211	40.816590782914	3
0	2217	40.936973580778	3
0	2225	41.065085541124	3
0	2227	41.070216053878	4
0	2239	41.229067461685	3
0	2263	41.749947783577	1
0	2271	41.908325224876	1
0	2278	41.966394738698	1
0	2283	42.051086313866	1
0	2285	42.088598538113	2
0	2305	42.428893637017	1
0	2308	42.451737680805	1
0	2310	42.520463613399	2
0	2315	42.535811705627	2
0	2319	42.621680938341	3
0	2345	43.242352402418	1
0	2357	43.576089601002	1
0	2360	43.621324487986	1
0	2371	43.867459124675	1
0	2381	43.982970653607	1
0	2391	44.165523577908	1
0	2396	44.254634602657	1
0	2401	44.270476499201	1
0	2403	44.286208774541	2
0	2421	44.664101094053	1
0	2426	44.729252942445	1
0	2437	44.917144071182	1
0	2444	45.01216346384	1
0	2465	46.026972041831	1
0	2475	46.302931959593	1
0	2478	46.3272124726	1
0	2493	46.679739066063	1
0	2505	46.983625388628	1
0	2508	46.989367825561	1
0	2510	47.015966661833	2
0	2515	47.122454350917	2
0	2523	47.265849314505	2
0	2529	47.293230104787	2
0	2531	47.313057661229	3
0	2543	47.53953117957	2
0	2561	47.822120512558	1
0	2573	48.122418486887	1
0	2585	48.369426352086	1
0	2588	48.448926783807	1
0	2599	48.575208928067	1
0	2602	48.597827579596	1
0	2609	48.676258084109	1
0	2611	48.681326101942	2
0	2613	48.692077409589	3
0	2639	49.29955443541	1
0	2647	49.478870220352	1
0	2652	49.548961105313	1
0	2659	49.63960596609	1
0	2665	49.721334535312	1
0	2677	49.913384665884	1
0	2680	49.921171548711	1
0	2697	50.223087459142	1
0	2700	50.291324235861	1
0	2717	50.847818324647	1
0	2720	50.850333489546	1
0	2731	51.14082007517	1
0	2738	51.180169471545	1
0	2740	51.181936956333	2
0	2751	51.399106068631	1
0	2757	51.466043991709	1
0	2773	51.898735754524	1
0	2781	52.095130509127	1
0	2793	52.30307421193	1
0	2796	52.331318458213	1
0	2800	52.393510339612	2
0	2809	52.50393000461	1
0	2817	52.604799082135	1
0	2819	52.613179590068	2
0	2821	52.675276428469	3
0	2827	52.708747309684	3
0	2829	52.738421735803	4
0	2831	52.741226056366	5
0	2835	52.769353899046	6
0	2851	53.006115807362	4
0	2853	53.099505408959	5
0	2859	53.137531264731	5
0	2877	53.448935923797	3
0	2883	53.512484489001	3
0	2905	53.945166132262	1
0	2919	54.339998961644	1
0	2927	54.480569769303	1
0	2937	54.663389289805	1
0	2947	54.799583893904	1
0	2950	54.804437414601	1
0	2963	55.034062098541	1
0	2966	55.061055699774	1
0	2975	55.165035665205	1
0	2981	55.310757988919	1
0	2983	55.318510424788	2
0	2995	55.44764897029	1
0	3003	55.627794606271	1
0	3009	55.668544816822	1
0	3029	56.400414750021	1
0	3041	56.808616988408	1
0	3044	56.855262159153	1
0	3051	56.998036615284	1
0	3063	57.168526089573	1
0	3071	57.283588037759	1
0	3085	57.583163832882	1
0	3091	57.716870619419	1
0	3103	57.925322178985	1
0	3111	58.121789984689	1
0	3127	58.622480134767	1
0	3130	58.678563109152	1
0	3137	58.799760117162	1
0	3143	58.875939885565	1
0	3145	58.911752816492	2
0	3151	58.947081502505	2
0	3155	58.984821294472	3
0	3157	59.015726101744	4
0	3163	59.052754992064	4
0	3185	59.486116330849	1
0	3193	59.612563147161	1
0	3205	59.814365262146	1
0	3210	59.904617110125	1
0	3217	60.00575379557	1
0	3233	60.532925597651	1
0	3238	60.571627512242	1
0	3247	60.742798197671	1
0	3252	60.786824345459	1
0	3254	60.800197488958	2
0	3256	60.809164633395	3
0	3258	60.817875487712	4
0	3265	60.903360122508	4
0	3273	61.003727181061	4
0	3279	61.05977765022	4
0	3297	61.3790781644	2
0	3309	61.557856879948	1
0	3325	62.119861072022	1
0	3330	62.191023515572	1
0	3339	62.335239451308	1
0	3344	62.364934611608	1
0	3351	62.482230969739	1
0	3353	62.485979222736	2
0	3371	62.775233243268	1
0	3374	62.785675893929	1
0	3387	62.989965652575	1
0	3397	63.160596428406	1
0	3402	63.258281038194	1
0	3407	63.348968220944	1
0	3419	63.518521552831	1
0	3429	63.633889522995	1
0	3439	63.773998572886	1
0	3451	64.114474575254	1
0	3459	64.302605065768	1
0	3477	64.998552944724	1
0	3480	65.093642447633	1
0	3485	65.130316100939	1
0	3493	65.221641038	1
0	3501	65.384826703042	1
0	3515	65.740164428668	1
0	3520	65.78600516394	1
0	3522	65.808144568874	2
0	3524	65.811274651666	3
0	3529	65.850327363398	3
0	3541	66.063384881736	2
0	3559	66.383419374857	1
0	3564	66.441272528964	1
0	3579	66.793449093178	1
0	3582	66.865994851301	1
0	3593	67.021672362624	1
0	3603	67.154797651897	1
0	3606	67.213683606125	1
0	3621	67.48040510665	1
0	3629	67.590410257625	1
0	3637	67.73913590156	1
0	3640	67.739144204344	1
0	3657	68.048267390476	1
0	3660	68.104331884548	1
0	3665	68.152268082779	1
0	3669	68.235393707136	2
0	3685	68.475351623412	1
0	3699	68.800216175543	1
0	3702	68.831018340853	1
0	3713	69.001876988454	1
0	3727	69.459854688893	1
0	3730	69.551211380799	1
0	3741	69.725678373313	1
0	3748	69.824753835275	1
0	3753	69.861161609326	1
0	3765	70.094361049997	1
0	3779	70.53603309161	1
0	3784	70.575129111016	1
0	3795	70.772005309961	1
0	3807	71.090417308052	1
0	3810	71.134360026825	1
0	3817	71.190824429553	1
0	3819	71.226812957468	2
0	3839	71.70037728868	1
0	3847	71.809911438466	1
0	3852	71.905639729305	1
0	3854	71.909539391084	2
0	3865	72.096042007776	1
0	3871	72.130920760534	1
0	3875	72.155951956719	2
0	3881	72.238877712317	2
0	3893	72.435523567541	1
0	3895	72.505825038938	2
0	3907	72.661705884425	1
0	3915	72.75513028089	1
0	3917	72.791418227606	2
0	3923	72.840200630302	2
0	3925	72.871154329343	3
0	3933	73.003722177748	3
0	3949	73.250933603722	1
0	3963	73.550039483914	1
0	3975	73.756241476984	1
0	3978	73.774996365473	1
0	3983	73.943515440405	1
0	3991	74.052794016815	1
0	3997	74.101423883838	1
0	3999	74.122670189057	2
0	4001	74.151509405183	3
0	4013	74.340781306206	2
0	4025	74.523631207983	1
0	4033	74.599273197971	1
0	4039	74.692578735833	1
0	4047	74.81758547193	1
0	4061	75.092874982371	1
0	4064	75.123243796926	1
0	4068	75.157630445707	2
0	4070	75.181101811265	3
0	4075	75.208142956202	3
0	4081	75.308574044831	3
0	4083	75.328575138322	4
0	4091	75.394493446896	4
0	4099	75.586557099993	4
0	4125	76.009652492255	1
0	4128	76.014291435989	1
0	4141	76.231724652453	1
0	4153	76.437876104616	1
0	4163	76.645020568966	1
0	4166	76.659595720721	1
0	4181	77.01066951482	1
0	4184	77.047449228716	1
0	4186	77.060515516205	2
0	4197	77.268012986128	1
0	4205	77.388521750528	1
0	4217	77.585865689273	1
0	4225	77.717597951081	1
0	4228	77.724601112628	1
0	4247	78.214875572751	1
0	4250	78.250073950139	1
0	4252	78.301901887695	2
0	4257	78.352625094922	2
0	4261	78.393954285478	3
0	4273	78.563592057356	2
0	4275	78.579445133472	3
0	4277	78.58921206319	4
0	4279	78.591696977353	5
0	4285	78.713368130687	5
0	4307	79.111251908015	2
0	4309	79.112644361672	3
0	4321	79.278905824804	2
0	4337	79.547404265476	1
0	4351	79.778078572647	1
0	4365	80.401474236981	1
0	4368	80.451110719157	1
0	4379	80.633464290161	1
0	4389	80.765896371905	1
0	4392	80.795962701168	1
0	4394	80.805876502772	2
0	4401	80.913613474788	2
0	4409	81.013334637221	2
0	4415	81.143619496941	2
0	4437	81.712723064404	1
0	4447	81.945074816277	1
0	4459	82.25880830217	1
0	4467	82.39870008046	1
0	4472	82.460609560469	1
0	4474	82.497571933801	2
0	4495	82.986410080379	1
0	4498	83.077501973672	1
0	4503	83.117038540597	1
0	4519	83.433671856754	1
0	4531	83.881001958075	1
0	4539	83.982672258383	1
0	4553	84.408168287389	1
0	4561	84.596753836725	1
0	4573	84.837572651185	1
0	4576	84.937449024181	1
0	4587	85.086768570686	1
0	4597	85.271700640141	1
0	4611	85.582764859606	1
0	4617	85.686180040283	1
0	4620	85.738193035851	1
0	4637	86.017407782298	1
0	4647	86.300923037012	1
0	4650	86.333337469501	1
0	4657	86.47763925849	1
0	4669	86.700275630888	1
0	4674	86.702274417612	1
0	4691	87.251223017227	1
0	4694	87.315203389032	1
0	4709	87.612615724723	1
0	4712	87.636665838896	1
0	4723	87.86407617837	1
0	4739	88.465268626601	1
0	4753	89.095547540538	1
0	4758	89.193167141892	1
0	4771	89.403268496436	1
0	4777	89.506460018205	1
0	4780	89.507068466403	1
0	4789	89.660096529596	1
0	4795	89.707196214305	1
0	4799	89.776164911971	2
0	4805	89.855434996216	2
0	4807	89.877518751813	3
0	4815	89.961369902312	3
0	4831	90.220364909273	1
0	4833	90.273404395562	2
0	4835	90.304984388793	3
0	4843	90.381891585187	3
0	4849	90.489298382886	3
0	4855	90.508585418477	3
0	4857	90.54668712523	4
0	4887	91.138832115364	1
0	4892	91.154277369922	1
0	4894	91.232439193085	2
0	4909	91.529722744251	1
0	4919	91.656043189677	1
0	4935	92.197384340425	1
0	4938	92.260533335132	1
0	4953	92.746527780167	1
0	4965	92.97982193422	1
0	4975	93.335380071312	1
0	4980	93.414874308203	1
0	4993	93.637988771354	1
0	4996	93.704761172265	1
0	5003	93.765538604616	1
0	5009	93.842037229693	1
0	5011	93.854724153457	2
0	5013	93.908618239226	3
0	5021	93.987063387274	3
0	5033	94.210958211903	2
0	5039	94.250598781523	2
0	5059	94.641584551871	1
0	5062	94.66290337858	1
0	5064	94.721928740248	2
0	5066	94.730164846131	3
0	5091	95.188393812982	1
0	5099	95.382365991801	1
0	5102	95.384472980487	1
0	5104	95.386196968018	2
0	5111	95.50056052065	2
0	5123	95.721391144349	1
0	5127	95.775877477184	2
0	5133	95.799717454132	2
0	5149	96.121375273809	1
0	5152	96.133804614747	1
0	5156	96.177081521299	2
0	5160	96.191162703391	3
0	5171	96.360869518532	2
0	5181	96.528102631818	1
0	5195	96.777547498919	1
0	5198	96.81977610229	1
0	5205	96.904660283535	1
0	5213	96.98650894075	1
0	5225	97.195739304439	1
0	5233	97.317992054073	1
0	5247	97.583435027554	1
0	5257	97.878943662393	1
0	5260	97.950415449783	1
0	5271	98.145182295124	1
0	5276	98.160412407715	1
0	5280	98.207686412022	2
0	5285	98.252071693009	2
0	5287	98.273216875671	3
0	5295	98.407666256424	3
0	5297	98.416211236294	4
0	5303	98.5132874419	4
0	5311	98.567131639657	4
0	5317	98.667527070455	4
0	5319	98.713122804339	5
0	5327	98.805138667778	5
0	5333	98.896498336077	5
0	5341	99.008035814843	5
0	5353	99.180497023005	4
0	5359	99.26801058866	4
0	5371	99.44643502636	3
0	5383	99.733661365006	2
0	5391	99.783671865762	2
0	5397	99.868897438323	2
0	5399	99.94058513645	3
0	5417	100.203642333204	1
0	5419	100.233620663892	2
0	5425	100.340421873736	2
0	5443	100.573483699041	1
0	5446	100.587034285653	1
0	5448	100.595813470495	2
0	5457	100.75765250677	2
0	5467	100.936754512359	1
0	5471	100.971467658152	2
0	5487	101.197699942896	1
0	5499	101.479567708028	1
0	5509	101.704929627085	1
0	5517	101.876483220173	1
0	5522	101.921531982216	1
0	5524	101.951001265101	2
0	5531	102.021217233086	2
0	5533	102.032080099603	3
0	5541	102.164944196507	3
0	5543	102.166404507908	4
0	5549	102.21419208509	4
0	5565	102.548104683506	2
0	5573	102.617613187637	2
0	5575	102.639101140844	3
0	5577	102.672021364978	4
0	5593	102.898590605162	2
0	5601	102.99097849773	2
0	5621	103.379845789048	1
0	5624	103.386691496472	1
0	5631	103.575075519123	1
0	5645	103.816338196486	1
0	5651	103.917580842534	1
0	5654	103.929592670926	1
0	5663	104.0246824899	1
0	5669	104.13441429077	1
0	5685	104.455879245834	1
0	5688	104.510846939609	1
0	5695	104.611381721095	1
0	5701	104.740631844864	1
0	5709	104.820942497528	1
0	5725	105.30166382197	1
0	5728	105.330358228855	1
0	5735	105.48594499297	1
0	5743	105.582681266645	1
0	5745	105.588081691107	2
0	5761	105.817708953948	1
0	5766	105.902132734221	1
0	5777	106.024067488399	1
0	5785	106.131075130819	1
0	5790	106.157204404875	1
0	5797	106.272442406155	1
0	5799	106.295735243981	2
0	5811	106.467304550849	1
0	5819	106.624547916592	1
0	5825	106.673323547165	1
0	5833	106.789549904091	1
0	5835	106.81024288888	2
0	5841	106.869351524672	2
0	5847	106.944155374603	2
0	5851	106.968007177123	3
0	5875	107.437931600555	1
0	5878	107.464061408042	1
0	5880	107.49513918538	2
0	5882	107.515927208593	3
0	5903	107.867413198107	1
0	5913	107.997153914521	1
0	5921	108.11487946746	1
0	5924	108.129399088306	1
0	5933	108.220971515056	1
0	5949	108.583073979632	1
0	5959	108.903687233195	1
0	5962	108.916679782362	1
0	5969	109.008720413823	1
0	5981	109.250420213691	1
0	5991	109.443614509952	1
0	6005	109.75810995098	1
0	6008	109.83449032401	1
0	6010	109.849208252404	2
0	6029	110.200788698524	1
0	6032	110.284137535498	1
0	6043	110.45982708974	1
0	6050	110.55597312153	1
0	6059	110.736380189104	1
0	6069	110.866575686407	1
0	6072	110.92613782891	1
0	6085	111.115084004504	1
0	6097	111.327151503935	1
0	6100	111.331267819	1
0	6107	111.482883193465	1
0	6119	111.680061508178	1
0	6122	111.721231036479	1
0	6135	111.939715068215	1
0	6140	111.965964325448	1
0	6142	111.967436490908	2
0	6155	112.206169909327	1
0	6161	112.261457350269	1
0	6177	112.741195596785	1
0	6182	112.780959561996	1
0	6187	112.872871378726	1
0	6195	112.977875224143	1
0	6201	113.111975434545	1
0	6219	113.572936717963	1
0	6229	113.86543325474	1
0	6237	113.987836039335	1
0	6242	114.079494673528	1
0	6247	114.094877457479	1
0	6263	114.549968843339	1
0	6271	114.695770476998	1
0	6281	114.82438574239	1
0	6293	115.122576660617	1
0	6305	115.380437057385	1
0	6308	115.406167851491	1
0	6323	115.765444819899	1
0	6337	116.497969668451	1
0	6347	116.751504911665	1
0	6352	116.764829769063	1
0	6354	116.790878253544	2
0	6356	116.805761482517	3
0	6367	116.954453408381	2
0	6373	117.105061084463	2
0	6381	117.181294002571	2
0	6401	117.62856095117	1
0	6404	117.638275805088	1
0	6419	118.05236647344	1
0	6422	118.135122015329	1
0	6429	118.224084254928	1
0	6435	118.268983512291	1
0	6447	118.46410912641	1
0	6459	118.747718499575	1
0	6469	118.951076276653	1
0	6474	118.956157054939	1
0	6476	119.011162828008	2
0	6495	119.49022710891	1
0	6498	119.50936314498	1
0	6502	119.575224692818	2
0	6507	119.66324001382	2
0	6513	119.729413235429	2
0	6521	119.80399462838	2
0	6523	119.806464120978	3
0	6529	119.920308837115	3
0	6531	119.951036677187	4
0	6549	120.231032747714	2
0	6555	120.307971796488	2
0	6563	120.423241183097	2
0	6583	120.820619422432	1
0	6591	120.99166125397	1
0	6594	121.007401166069	1
0	6601	121.148326463948	1
0	6619	121.584214404496	1
0	6622	121.599765029992	1
0	6635	121.905209158083	1
0	6638	121.919690349937	1
0	6645	122.010505417183	1
0	6647	122.019144354706	2
0	6649	122.078479194765	3
0	6651	122.092055315287	4
0	6657	122.131795555933	4
0	6661	122.172404214544	5
0	6671	122.315372595284	4
0	6685	122.589803918663	3
0	6687	122.594849006801	4
0	6697	122.705687009792	3
0	6699	122.708046378358	4
0	6707	122.815993113011	4
0	6709	122.899994369011	5
0	6721	123.0573956939	4
0	6723	123.067970986154	5
0	6731	123.185954849938	5
0	6737	123.229495862206	5
0	6739	123.234446459964	6
0	6741	123.271939082461	7
0	6749	123.402118362944	7
0	6755	123.445910273703	7
0	6767	123.667073607421	6
0	6769	123.688144964964	7
0	6777	123.75894017813	7
0	6779	123.760756564889	8
0	6785	123.862059945415	8
0	6787	123.880467196513	9
0	6819	124.480101718021	4
0	6831	124.624640622464	3
0	6833	124.666727011391	4
0	6863	125.21566132916	1
0	6866	125.285999528251	1
0	6885	125.982041527643	1
0	6888	125.989051762903	1
0	6890	126.067956382267	2
0	6895	126.123630640387	2
0	6897	126.150312154065	3
0	6915	126.417452355299	1
0	6923	126.57018499212	1
0	6937	126.816962506181	1
0	6943	126.918054022814	1
0	6953	127.071311774925	1
0	6971	127.753485352704	1
0	6974	127.822339541827	1
0	6976	127.832469665359	2
0	6981	127.888728956827	2
0	6993	128.118069787434	1
0	7009	128.360868947397	1
0	7012	128.411904530339	1
0	7014	128.422862278912	2
0	7019	128.464308057851	2
0	7027	128.63690744679	2
0	7039	128.799837943464	1
0	7045	128.871719847637	1
0	7047	128.914086854431	2
0	7059	129.06482685079	1
0	7067	129.229255734941	1
0	7083	129.621601874804	1
0	7089	129.730858510759	1
0	7103	130.019419296359	1
0	7106	130.102189614605	1
0	7113	130.205466697812	1
0	7123	130.326813652082	1
0	7128	130.410562670472	1
0	7135	130.461314588277	1
0	7147	130.720682533929	1
0	7157	130.904602365764	1
0	7169	131.105643760061	1
0	7174	131.186028579362	1
0	7179	131.274927192052	1
0	7185	131.341998177442	1
0	7203	131.862594939522	1
0	7213	132.12720804835	1
0	7218	132.194893868124	1
0	7233	132.583367789949	1
0	7236	132.659376272034	1
0	7238	132.666441162692	2
0	7249	132.867744123869	1
0	7255	132.90746146487	1
0	7263	132.99688724858	1
0	7265	133.061163389207	2
0	7285	133.476535061633	1
0	7295	133.729617804947	1
0	7300	133.774223834133	1
0	7317	134.409176203583	1
0	7320	134.481307937228	1
0	7337	135.002236293113	1
0	7345	135.181409784639	1
0	7357	135.53440999985	1
0	7369	135.875466074853	1
0	7372	135.928231182667	1
0	7374	135.947586958145	2
0	7397	136.67204499534	1
0	7400	136.713515902822	1
0	7404	136.75655226713	2
0	7409	136.795419105512	2
0	7411	136.812210786684	3
0	7417	136.91306822199	3
0	7441	137.365313462818	1
0	7453	137.698495590298	1
0	7456	137.738368072651	1
0	7463	137.804868232051	1
0	7471	137.980433591553	1
0	7477	138.053411462517	1
0	7479	138.062430717887	2
0	7499	138.435275380539	1
0	7507	138.632069842702	1
0	7512	138.650194552141	1
0	7527	138.970399911322	1
0	7533	139.119994749947	1
0	7538	139.167702931726	1
0	7542	139.189078373574	2
0	7547	139.26055574672	2
0	7553	139.330875100466	2
0	7557	139.40120682381	3
0	7563	139.460031017253	3
0	7575	139.66724987923	2
0	7587	139.83821919023	1
0	7589	139.878952558982	2
0	7601	140.117056143436	1
0	7607	140.145340852074	1
0	7615	140.250497678473	1
0	7621	140.339980166005	1
0	7625	140.392678358236	2
0	7631	140.447140184264	2
0	7649	140.772824066467	1
0	7661	141.04695300664	1
0	7664	141.112002734946	1
0	7669	141.15272322991	1
0	7683	141.353858488599	1
0	7691	141.458549120924	1
0	7701	141.580123093001	1
0	7715	142.008736895173	1
0	7718	142.042493269252	1
0	7725	142.193260616538	1
0	7735	142.312543946734	1
0	7749	142.615481622217	1
0	7755	142.725465423019	1
0	7769	143.148002182514	1
0	7774	143.21233895788	1
0	7785	143.420742733922	1
0	7788	143.424481948281	1
0	7797	143.604865549987	1
0	7803	143.629036936811	1
0	7819	144.145178543949	1
0	7824	144.166387510859	1
0	7841	144.944156924314	1
0	7849	145.128764751969	1
0	7856	145.218937948927	1
0	7867	145.404139930335	1
0	7870	145.415165886948	1
0	7879	145.557081148136	1
0	7885	145.60904614726	1
0	7893	145.776214882017	1
0	7895	145.801008833865	2
0	7901	145.890008419104	2
0	7909	145.971068823744	2
0	7919	146.149716041753	1
0	7923	146.170827815067	2
0	7929	146.242128765513	2
0	7937	146.381124555558	2
0	7939	146.396933975045	3
0	7945	146.469320257319	3
0	7971	146.953117669876	1
0	7981	147.291739188489	1
0	7984	147.303017959864	1
0	8001	147.818361468736	1
0	8004	147.821284862679	1
0	8009	147.94002622687	1
0	8027	148.523662740431	1
0	8032	148.571863785861	1
0	8034	148.595973291946	2
0	8043	148.730531244062	1
0	8047	148.775434194503	2
0	8063	149.116040710613	1
0	8068	149.152452526217	1
0	8075	149.230769221879	1
0	8083	149.360863024704	1
0	8089	149.481333540492	1
0	8107	150.039244787127	1
0	8110	150.08679139411	1
0	8112	150.134617551372	2
0	8119	150.225785265989	2
0	8139	150.75214479864	1
0	8144	150.82919764063	1
0	8146	150.833071847294	2
0	8151	150.875907185369	2
0	8169	151.204354192553	1
0	8177	151.310096590759	1
0	8187	151.495059899842	1
0	8192	151.550802263066	1
0	8199	151.59961477064	1
0	8201	151.669644422174	2
0	8221	152.007518352685	1
0	8227	152.119175091895	1
0	8230	152.123207184822	1
0	8243	152.331508775902	1
0	8253	152.47888802731	1
0	8258	152.53974697889	1
0	8265	152.599716269762	1
0	8281	152.98658323938	1
0	8293	153.498821974745	1
0	8305	153.796243861786	1
0	8308	153.823936242722	1
0	8310	153.831423583086	2
0	8327	154.179052492471	1
0	8332	154.22293508265	1
0	8337	154.282992312369	1
0	8341	154.37161759543	2
0	8359	154.701666993497	1
0	8362	154.718244374987	1
0	8369	154.825999250269	1
0	8371	154.890265404588	2
0	8379	154.997460532695	2
0	8391	155.199577856249	1
0	8397	155.272944117842	1
0	8409	155.44410061798	1
0	8419	155.557382390644	1
0	8427	155.703464179366	1
0	8441	156.137731821919	1
0	8449	156.323686534011	1
0	8463	156.658732511676	1
0	8466	156.693130087422	1
0	8477	156.862698667169	1
0	8480	156.925412416011	1
0	8493	157.078255393172	1
0	8503	157.247419458208	1
0	8513	157.366650383618	1
0	8525	157.683736405815	1
0	8528	157.731495358223	1
0	8535	157.849178862761	1
0	8537	157.873251478865	2
0	8543	157.923090572402	2
0	8561	158.214097803884	1
0	8564	158.218703069836	1
0	8573	158.369905100909	1
0	8585	158.555760577016	1
0	8588	158.609185444251	1
0	8590	158.610372746227	2
0	8597	158.702861709505	2
0	8605	158.772806263471	2
0	8607	158.776531244633	3
0	8613	158.889956181802	3
0	8621	159.012445085129	3
0	8643	159.395316559161	1
0	8648	159.462529754417	1
0	8650	159.476593062558	2
0	8657	159.58138021347	2
0	8663	159.659497043201	2
0	8665	159.684516406919	3
0	8667	159.68820845353	4
0	8675	159.771348724542	4
0	8681	159.834270623062	4
0	8699	160.189214162639	2
0	8709	160.335235044186	1
0	8711	160.336517246983	2
0	8715	160.385598804182	3
0	8739	160.906007879998	1
0	8742	160.941318759974	1
0	8753	161.117429280493	1
0	8756	161.135873665526	1
0	8758	161.15158050654	2
0	8767	161.280687712667	2
0	8773	161.332013916409	2
0	8781	161.510263290452	2
0	8793	161.626440808642	1
0	8801	161.793632459092	1
0	8813	161.986815994959	1
0	8827	162.432797245881	1
0	8830	162.506663452338	1
0	8832	162.507069483525	2
0	8837	162.545707213476	2
0	8845	162.701983883199	2
0	8853	162.792990744586	2
0	8859	162.930581514123	2
0	8881	163.467356772999	1
0	8889	163.600636079848	1
0	8901	163.869837046948	1
0	8915	164.363434371487	1
0	8925	164.732831011898	1
0	8928	164.735383355457	1
0	8935	164.900453635029	1
0	8947	165.079301001162	1
0	8954	165.166452299481	1
0	8967	165.418494659493	1
0	8975	165.591815868805	1
0	8983	165.698759340674	1
0	8993	165.855633134592	1
0	8998	165.916595064604	1
0	9000	165.921024836279	2
0	9014	166.155723318884	1
0	9029	166.533706622961	1
0	9032	166.549051890112	1
0	9039	166.666334553578	1
0	9047	166.753853579424	1
0	9065	167.462812858953	1
0	9073	167.572893354006	1
0	9076	167.645351307645	1
0	9089	167.822955468097	1
0	9101	168.069458453378	1
0	9104	168.083751125809	1
0	9111	168.17645898238	1
0	9113	168.215227869688	2
0	9129	168.478245087429	1
0	9134	168.557466686037	1
0	9141	168.67365874649	1
0	9153	168.820102549935	1
0	9165	169.147509633328	1
0	9177	169.474512700401	1
0	9189	169.792685868928	1
0	9195	169.937360833192	1
0	9202	169.997053092389	1
0	9204	170.018540397957	2
0	9209	170.096274575173	2
0	9231	170.687493377867	1
0	9239	170.805495845186	1
0	9251	171.113603717766	1
0	9259	171.259411063038	1
0	9269	171.36420159808	1
0	9272	171.435751260722	1
0	9289	171.819078918222	1
0	9295	171.93625423672	1
0	9305	172.053184491045	1
0	9308	172.072516287951	1
0	9325	172.457706182256	1
0	9333	172.628948510784	1
0	9345	172.894651508682	1
0	9348	172.945417678605	1
0	9365	173.463069198009	1
0	9368	173.469658283128	1
0	9383	173.848110902331	1
0	9386	173.866622323057	1
0	9388	173.872127183599	2
0	9390	173.889006675556	3
0	9392	173.917821011978	4
0	9399	173.974897654262	4
0	9405	174.048829469517	4
0	9407	174.091290334894	5
0	9429	174.547220073414	2
0	9441	174.671318961955	1
0	9443	174.724826399856	2
0	9463	175.080061807806	1
0	9466	175.10629834682	1
0	9473	175.236461618261	1
0	9489	175.562596554331	1
0	9495	175.699268425542	1
0	9502	175.787963843377	1
0	9507	175.828743719163	1
0	9523	176.186436020648	1
0	9529	176.316878324774	1
0	9532	176.343072494246	1
0	9536	176.36672330217	2
0	9547	176.529038584843	1
0	9551	176.59037621423	2
0	9557	176.677419652427	2
0	9569	176.824755380088	1
0	9571	176.836690903352	2
0	9573	176.903940299344	3
0	9585	177.082778135656	2
0	9605	177.44563584478	1
0	9608	177.488268806309	1
0	9623	177.80443586007	1
0	9626	177.810499096718	1
0	9628	177.895914513799	2
0	9633	177.905186936096	2
0	9641	178.014537944303	2
0	9643	178.023991460942	3
0	9649	178.12055018182	3
0	9667	178.478010422799	1
0	9673	178.50857823013	1
0	9685	178.71057232341	1
0	9690	178.796148221621	1
0	9705	179.138657326784	1
0	9710	179.169812819716	1
0	9715	179.33729060575	1
0	9727	179.525689945566	1
0	9737	179.638605393372	1
0	9745	179.749643222084	1
0	9750	179.804100295243	1
0	9757	179.86207442255	1
0	9779	180.791460940358	1
0	9782	180.791926593879	1
0	9784	180.859383599071	2
0	9795	180.995819204802	1
0	9797	181.091234722957	2
0	9809	181.248313561281	1
0	9815	181.319594977099	1
0	9817	181.32037544702	2
0	9839	181.903672155435	1
0	9853	182.430768978878	1
0	9856	182.459562664171	1
0	9863	182.62309950214	1
0	9869	182.682721364128	1
0	9875	182.734760696601	1
0	9883	182.905839367846	1
0	9889	182.939379226596	1
0	9891	182.949173265943	2
0	9911	183.339124252745	1
0	9919	183.479311315197	1
0	9922	183.53480819216	1
0	9931	183.632219801179	1
0	9937	183.70965031942	1
0	9941	183.759761581879	2
0	9951	183.910145943128	1
0	9953	183.950998627081	2
0	9973	184.282982711811	1
0	9981	184.391373047441	1
0	9984	184.476378341418	1
0	9991	184.545191036815	1
0	10007	184.940310746206	1
0	10012	185.031775072135	1
0	10023	185.166277947623	1
0	10026	185.228033034304	1
0	10033	185.312821326501	1
0	10051	185.841294027685	1
0	10059	185.976054382651	1
0	10062	185.997537873373	1
0	10066	186.06319879179	2
0	10071	186.078471138087	2
0	10079	186.238983511531	2
0	10085	186.302083662391	2
0	10093	186.460549811518	2
0	10105	186.594665694737	1
0	10117	186.853324477557	1
0	10127	187.01478304647	1
0	10132	187.092100178971	1
0	10139	187.168039774033	1
0	10141	187.173783093699	2
0	10167	188.258803361619	1
0	10181	188.885119902253	1
0	10184	188.950174822813	1
0	10191	189.039344725318	1
0	10203	189.231045044693	1
0	10217	189.64725823793	1
0	10225	189.799502081685	1
0	10235	189.966732109796	1
0	10247	190.218272319745	1
0	10250	190.264801738235	1
0	10267	190.825674009941	1
0	10273	190.950213106956	1
0	10287	191.281023227526	1
0	10299	191.752772860431	1
0	10311	191.969718996254	1
0	10314	191.987787736419	1
0	10321	192.167510444596	1
0	10327	192.215175845803	1
0	10333	192.276483493938	1
0	10335	192.289326613055	2
0	10337	192.31329658012	3
0	10349	192.530694860541	2
0	10351	192.540397401313	3
0	10353	192.543686508416	4
0	10361	192.585227842215	4
0	10363	192.6073726247	5
0	10369	192.692292057454	5
0	10371	192.737585307977	6
0	10379	192.848305819359	6
0	10397	193.155593292849	4
0	10413	193.378069304054	2
0	10415	193.407729069245	3
0	10439	193.885911695086	1
0	10444	193.971094849054	1
0	10449	193.989813812893	1
0	10451	194.048796405942	2
0	10453	194.065772405801	3
0	10465	194.197118225515	2
0	10471	194.330746295799	2
0	10491	194.744178257421	1
0	10501	194.949386360627	1
0	10515	195.373364956212	1
0	10525	195.656094648343	1
0	10528	195.664185191806	1
0	10543	196.07612297234	1
0	10551	196.212152438436	1
0	10567	196.827142582336	1
0	10579	197.160710004699	1
0	10582	197.237284279104	1
0	10595	197.465039651364	1
0	10598	197.536826137024	1
0	10605	197.57247601769	1
0	10607	197.596467649693	2
0	10619	197.813689568285	1
0	10631	197.98693574832	1
0	10634	198.018370421179	1
0	10643	198.178770079934	1
0	10657	198.522308662919	1
0	10669	198.819451957338	1
0	10672	198.820797665438	1
0	10674	198.836145437374	2
0	10676	198.850330447849	3
0	10683	198.953637074442	3
0	10689	199.098452444396	3
0	10701	199.228964430951	2
0	10703	199.301261312385	3
0	10709	199.342734465	3
0	10713	199.357966780587	4
0	10715	199.38574018861	5
1	5	0.219481175685	1
1	14	0.354265233958	1
1	24	0.542654847665	1
1	34	0.821595479476	1
1	45	0.960078949197	1
1	55	1.25281074958	1
1	66	1.370890920577	1
1	78	1.652735528707	1
1	81	1.752735528707	1
1	92	1.881943765667	1
1	104	2.037667660767	1
1	109	2.137667660767	1
1	117	2.237667660767	1
1	121	2.337667660767	1
1	136	2.583267299033	1
1	139	2.683267299033	1
1	154	3.089261841386	1
1	161	3.189261841386	1
1	167	3.289261841386	1
1	173	3.389261841386	1
1	182	3.542306948135	1
1	194	3.793138628184	1
1	204	3.906039745181	1
1	209	4.006039745181	1
1	220	4.130037058199	1
1	225	4.230037058199	1
1	238	4.594605972428	1
1	254	4.865861362069	1
1	259	4.965861362069	1
1	267	5.065861362069	1
1	275	5.165861362069	1
1	279	5.265861362069	1
1	287	5.365861362069	1
1	291	5.465861362069	1
1	297	5.565861362069	1
1	308	5.921616592655	1
1	320	6.147484231451	1
1	325	6.247484231451	1
1	336	6.476215998192	1
1	348	6.782349830579	1
1	364	7.35913311095	1
1	367	7.45913311095	1
1	378	7.696175420411	1
1	390	7.938275731645	1
1	395	8.038275731645	1
1	404	8.141359813767	1
1	416	8.368840209866	1
1	426	8.539231051123	1
1	431	8.639231051123	1
1	440	8.749396367873	1
1	450	8.902611149025	1
1	462	9.033459328281	1
1	467	9.133459328281	1
1	473	9.233459328281	1
1	486	9.606457050824	1
1	496	9.819661752838	1
1	508	9.930335846601	1
1	515	10.030335846601	1
1	523	10.130335846601	1
1	529	10.230335846601	1
1	535	10.330335846601	1
1	541	10.430335846601	1
1	547	10.530335846601	1
1	555	10.630335846601	1
1	561	10.730335846601	1
1	573	10.830335846601	1
1	579	10.930335846601	1
1	589	11.030335846601	1
1	593	11.130335846601	1
1	603	11.230335846601	1
1	607	11.330335846601	1
1	617	11.430335846601	1
1	621	11.530335846601	1
1	627	11.630335846601	1
1	631	11.730335846601	1
1	637	11.830335846601	1
1	648	11.958889997582	1
1	658	12.308227003714	1
1	670	12.479997846919	1
1	677	12.579997846919	1
1	683	12.679997846919	1
1	691	12.779997846919	1
1	695	12.879997846919	1
1	708	13.21404424049	1
1	722	13.393460410409	1
1	725	13.493460410409	1
1	731	13.593460410409	1
1	742	13.943493940513	1
1	752	14.108330810646	1
1	762	14.267155930369	1
1	776	14.433745547222	1
1	783	14.533745547222	1
1	789	14.633745547222	1
1	795	14.733745547222	1
1	803	14.833745547222	1
1	809	14.933745547222	1
1	819	15.033745547222	1
1	823	15.133745547222	1
1	833	15.233745547222	1
1	839	15.333745547222	1
1	847	15.433745547222	1
1	851	15.533745547222	1
1	857	15.633745547222	1
1	861	15.733745547222	1
1	876	16.155092962114	1
1	890	16.634034958422	1
1	895	16.734034958422	1
1	903	16.834034958422	1
1	911	16.934034958422	1
1	917	17.034034958422	1
1	921	17.134034958422	1
1	938	17.825604385627	1
1	948	17.984415792891	1
1	958	18.115203170935	1
1	965	18.215203170935	1
1	971	18.315203170935	1
1	981	18.415203170935	1
1	985	18.515203170935	1
1	997	18.615203170935	1
1	1003	18.715203170935	1
1	1011	18.815203170935	1
1	1015	18.915203170935	1
1	1025	19.015203170935	1
1	1031	19.115203170935	1
1	1037	19.215203170935	1
1	1045	19.315203170935	1
1	1051	19.415203170935	1
1	1055	19.515203170935	1
1	1061	19.615203170935	1
1	1074	19.839124281579	1
1	1077	19.939124281579	1
1	1088	20.071066782372	1
1	1102	20.329116531029	1
1	1109	20.429116531029	1
1	1113	20.529116531029	1
1	1119	20.629116531029	1
1	1130	20.765726078039	1
1	1140	20.933698232902	1
1	1145	21.033698232902	1
1	1158	21.48489170505	1
1	1172	22.047246423988	1
1	1186	22.363044619107	1
1	1189	22.463044619107	1
1	1200	22.564782647566	1
1	1214	23.129071740242	1
1	1221	23.229071740242	1
1	1227	23.329071740242	1
1	1233	23.429071740242	1
1	1250	23.56857137756	1
1	1255	23.66857137756	1
1	1261	23.76857137756	1
1	1265	23.86857137756	1
1	1271	23.96857137756	1
1	1286	24.298625154543	1
1	1293	24.398625154543	1
1	1301	24.498625154543	1
1	1307	24.598625154543	1
1	1315	24.698625154543	1
1	1321	24.798625154543	1
1	1325	24.898625154543	1
1	1331	24.998625154543	1
1	1342	25.105699991015	1
1	1347	25.205699991015	1
1	1364	25.561519414842	1
1	1367	25.661519414842	1
1	1375	25.761519414842	1
1	1381	25.861519414842	1
1	1389	25.961519414842	1
1	1393	26.061519414842	1
1	1406	26.335829006918	1
1	1413	26.435829006918	1
1	1419	26.535829006918	1
1	1425	26.635829006918	1
1	1440	26.97272961963	1
1	1443	27.07272961963	1
1	1456	27.368572842087	1
1	1466	27.497257188248	1
1	1471	27.597257188248	1
1	1484	27.9076611499	1
1	1493	28.0076611499	1
1	1499	28.1076611499	1
1	1505	28.2076611499	1
1	1509	28.3076611499	1
1	1522	28.457632391108	1
1	1529	28.557632391108	1
1	1533	28.657632391108	1
1	1544	28.824089167785	1
1	1558	29.100281538508	1
1	1565	29.200281538508	1
1	1571	29.300281538508	1
1	1579	29.400281538508	1
1	1589	29.500281538508	1
1	1595	29.600281538508	1
1	1599	29.700281538508	1
1	1607	29.800281538508	1
1	1617	29.900281538508	1
1	1623	30.000281538508	1
1	1629	30.100281538508	1
1	1639	30.200281538508	1
1	1643	30.300281538508	1
1	1651	30.400281538508	1
1	1655	30.500281538508	1
1	1663	30.600281538508	1
1	1669	30.700281538508	1
1	1675	30.800281538508	1
1	1679	30.900281538508	1
1	1694	31.213620873274	1
1	1699	31.313620873274	1
1	1705	31.413620873274	1
1	1716	31.553363303566	1
1	1726	31.68212224874	1
1	1731	31.78212224874	1
1	1740	31.892262450346	1
1	1752	32.231822486725	1
1	1762	32.35920560846	1
1	1772	32.512004417963	1
1	1777	32.612004417963	1
1	1788	32.883093451668	1
1	1800	33.340935700201	1
1	1812	33.511876894731	1
1	1819	33.611876894731	1
1	1823	33.711876894731	1
1	1836	33.971246389977	1
1	1848	34.547697377464	1
1	1862	34.728033162551	1
1	1867	34.828033162551	1
1	1873	34.928033162551	1
1	1879	35.028033162551	1
1	1892	35.270176294113	1
1	1899	35.370176294113	1
1	1903	35.470176294113	1
1	1914	35.594329783295	1
1	1926	35.913754692705	1
1	1933	36.013754692705	1
1	1939	36.113754692705	1
1	1945	36.213754692705	1
1	1956	36.464032031923	1
1	1970	36.968687599881	1
1	1978	37.145595039928	1
1	1988	37.278774251494	1
1	1998	37.472560641814	1
1	2008	37.634235874434	1
1	2016	37.738605793569	1
1	2026	37.852885959263	1
1	2040	38.321706212912	1
1	2047	38.421706212912	1
1	2053	38.521706212912	1
1	2061	38.621706212912	1
1	2067	38.721706212912	1
1	2073	38.821706212912	1
1	2088	38.958518835904	1
1	2093	39.058518835904	1
1	2101	39.158518835904	1
1	2105	39.258518835904	1
1	2113	39.358518835904	1
1	2119	39.458518835904	1
1	2127	39.558518835904	1
1	2135	39.658518835904	1
1	2141	39.758518835904	1
1	2147	39.858518835904	1
1	2153	39.958518835904	1
1	2164	40.084592452394	1
1	2169	40.184592452394	1
1	2186	40.484703753648	1
1	2193	40.584703753648	1
1	2201	40.684703753648	1
1	2207	40.784703753648	1
1	2213	40.884703753648	1
1	2221	40.984703753648	1
1	2229	41.084703753648	1
1	2235	41.184703753648	1
1	2241	41.284703753648	1
1	2247	41.384703753648	1
1	2251	41.484703753648	1
1	2257	41.584703753648	1
1	2268	41.850047783577	1
1	2280	42.008425224876	1
1	2287	42.108425224876	1
1	2293	42.208425224876	1
1	2297	42.308425224876	1
1	2312	42.528993637017	1
1	2321	42.628993637017	1
1	2325	42.728993637017	1
1	2331	42.828993637017	1
1	2335	42.928993637017	1
1	2348	43.342452402418	1
1	2362	43.676189601002	1
1	2367	43.776189601002	1
1	2378	43.967559124675	1
1	2386	44.083070653607	1
1	2398	44.265623577908	1
1	2407	44.365623577908	1
1	2411	44.465623577908	1
1	2417	44.565623577908	1
1	2430	44.764201094053	1
1	2433	44.864201094053	1
1	2446	45.017244071182	1
1	2449	45.117244071182	1
1	2468	46.127072041831	1
1	2482	46.403031959593	1
1	2485	46.503031959593	1
1	2498	46.779839066063	1
1	2512	47.083725388628	1
1	2519	47.183725388628	1
1	2525	47.283725388628	1
1	2535	47.383725388628	1
1	2539	47.483725388628	1
1	2547	47.583725388628	1
1	2551	47.683725388628	1
1	2557	47.783725388628	1
1	2566	47.922220512558	1
1	2578	48.222518486887	1
1	2590	48.469526352086	1
1	2595	48.569526352086	1
1	2606	48.675308928067	1
1	2617	48.775308928067	1
1	2621	48.875308928067	1
1	2627	48.975308928067	1
1	2631	49.075308928067	1
1	2644	49.39965443541	1
1	2656	49.578970220352	1
1	2661	49.678970220352	1
1	2669	49.778970220352	1
1	2673	49.878970220352	1
1	2686	50.013484665884	1
1	2689	50.113484665884	1
1	2702	50.323187459142	1
1	2707	50.423187459142	1
1	2722	50.947918324647	1
1	2727	51.047918324647	1
1	2742	51.24092007517	1
1	2745	51.34092007517	1
1	2753	51.44092007517	1
1	2759	51.54092007517	1
1	2765	51.64092007517	1
1	2778	51.998835754524	1
1	2788	52.195230509127	1
1	2802	52.40317421193	1
1	2805	52.50317421193	1
1	2813	52.60317421193	1
1	2823	52.70317421193	1
1	2837	52.80317421193	1
1	2841	52.90317421193	1
1	2847	53.00317421193	1
1	2855	53.10317421193	1
1	2863	53.20317421193	1
1	2867	53.30317421193	1
1	2873	53.40317421193	1
1	2879	53.50317421193	1
1	2887	53.60317421193	1
1	2891	53.70317421193	1
1	2897	53.80317421193	1
1	2901	53.90317421193	1
1	2912	54.045266132262	1
1	2924	54.440098961644	1
1	2934	54.580669769303	1
1	2944	54.763489289805	1
1	2954	54.899683893904	1
1	2959	54.999683893904	1
1	2970	55.134162098541	1
1	2977	55.234162098541	1
1	2985	55.334162098541	1
1	2991	55.434162098541	1
1	2997	55.534162098541	1
1	3005	55.634162098541	1
1	3011	55.734162098541	1
1	3017	55.834162098541	1
1	3032	56.500514750021	1
1	3046	56.908716988408	1
1	3053	57.008716988408	1
1	3057	57.108716988408	1
1	3068	57.268626089573	1
1	3078	57.383688037759	1
1	3088	57.683263832882	1
1	3098	57.816970619419	1
1	3108	58.025422178985	1
1	3118	58.221889984689	1
1	3132	58.722580134767	1
1	3139	58.822580134767	1
1	3147	58.922580134767	1
1	3159	59.022580134767	1
1	3165	59.122580134767	1
1	3171	59.222580134767	1
1	3175	59.322580134767	1
1	3181	59.422580134767	1
1	3187	59.522580134767	1
1	3195	59.622580134767	1
1	3199	59.722580134767	1
1	3212	59.914465262146	1
1	3219	60.014465262146	1
1	3223	60.114465262146	1
1	3240	60.633025597651	1
1	3243	60.733025597651	1
1	3262	60.842898197671	1
1	3267	60.942898197671	1
1	3275	61.042898197671	1
1	3281	61.142898197671	1
1	3287	61.242898197671	1
1	3291	61.342898197671	1
1	3299	61.442898197671	1
1	3303	61.542898197671	1
1	3311	61.642898197671	1
1	3315	61.742898197671	1
1	3332	62.219961072022	1
1	3335	62.319961072022	1
1	3348	62.435339451308	1
1	3355	62.535339451308	1
1	3361	62.635339451308	1
1	3365	62.735339451308	1
1	3378	62.875333243268	1
1	3383	62.975333243268	1
1	3392	63.090065652575	1
1	3404	63.260696428406	1
1	3411	63.360696428406	1
1	3415	63.460696428406	1
1	3426	63.618621552831	1
1	3434	63.733989522995	1
1	3444	63.874098572886	1
1	3456	64.214574575254	1
1	3466	64.402705065768	1
1	3482	65.098652944724	1
1	3489	65.198652944724	1
1	3495	65.298652944724	1
1	3503	65.398652944724	1
1	3507	65.498652944724	1
1	3526	65.840264428668	1
1	3531	65.940264428668	1
1	3537	66.040264428668	1
1	3543	66.140264428668	1
1	3549	66.240264428668	1
1	3553	66.340264428668	1
1	3566	66.483519374857	1
1	3571	66.583519374857	1
1	3584	66.893549093178	1
1	3589	66.993549093178	1
1	3598	67.121772362624	1
1	3610	67.254897651897	1
1	3615	67.354897651897	1
1	3626	67.58050510665	1
1	3634	67.690510257625	1
1	3646	67.83923590156	1
1	3649	67.93923590156	1
1	3662	68.148367390476	1
1	3671	68.248367390476	1
1	3675	68.348367390476	1
1	3681	68.448367390476	1
1	3692	68.575451623412	1
1	3704	68.900316175543	1
1	3709	69.000316175543	1
1	3718	69.101976988454	1
1	3734	69.559954688893	1
1	3737	69.659954688893	1
1	3750	69.825778373313	1
1	3755	69.925778373313	1
1	3761	70.025778373313	1
1	3772	70.194461049997	1
1	3786	70.63613309161	1
1	3789	70.73613309161	1
1	3800	70.872105309961	1
1	3814	71.190517308052	1
1	3821	71.290517308052	1
1	3827	71.390517308052	1
1	3831	71.490517308052	1
1	3844	71.80047728868	1
1	3856	71.910011438466	1
1	3861	72.010011438466	1
1	3867	72.110011438466	1
1	3877	72.210011438466	1
1	3883	72.310011438466	1
1	3889	72.410011438466	1
1	3897	72.510011438466	1
1	3903	72.610011438466	1
1	3909	72.710011438466	1
1	3919	72.810011438466	1
1	3927	72.910011438466	1
1	3935	73.010011438466	1
1	3939	73.110011438466	1
1	3945	73.210011438466	1
1	3951	73.310011438466	1
1	3957	73.410011438466	1
1	3968	73.650139483914	1
1	3980	73.856341476984	1
1	3987	73.956341476984	1
1	3993	74.056341476984	1
1	4005	74.156341476984	1
1	4009	74.256341476984	1
1	4017	74.356341476984	1
1	4021	74.456341476984	1
1	4029	74.556341476984	1
1	4035	74.656341476984	1
1	4043	74.756341476984	1
1	4049	74.856341476984	1
1	4055	74.956341476984	1
1	4072	75.192974982371	1
1	4077	75.292974982371	1
1	4087	75.392974982371	1
1	4093	75.492974982371	1
1	4101	75.592974982371	1
1	4105	75.692974982371	1
1	4111	75.792974982371	1
1	4115	75.892974982371	1
1	4121	75.992974982371	1
1	4132	76.109752492255	1
1	4137	76.209752492255	1
1	4146	76.331824652453	1
1	4156	76.537976104616	1
1	4168	76.745120568966	1
1	4173	76.845120568966	1
1	4188	77.11076951482	1
1	4193	77.21076951482	1
1	4199	77.31076951482	1
1	4207	77.41076951482	1
1	4211	77.51076951482	1
1	4222	77.685965689273	1
1	4234	77.817697951081	1
1	4237	77.917697951081	1
1	4254	78.314975572751	1
1	4263	78.414975572751	1
1	4267	78.514975572751	1
1	4281	78.614975572751	1
1	4287	78.714975572751	1
1	4293	78.814975572751	1
1	4297	78.914975572751	1
1	4303	79.014975572751	1
1	4311	79.114975572751	1
1	4317	79.214975572751	1
1	4323	79.314975572751	1
1	4329	79.414975572751	1
1	4333	79.514975572751	1
1	4344	79.647504265476	1
1	4354	79.878178572647	1
1	4370	80.501574236981	1
1	4375	80.601574236981	1
1	4384	80.733564290161	1
1	4398	80.865996371905	1
1	4405	80.965996371905	1
1	4411	81.065996371905	1
1	4419	81.165996371905	1
1	4423	81.265996371905	1
1	4429	81.365996371905	1
1	4442	81.812823064404	1
1	4452	82.045174816277	1
1	4464	82.35890830217	1
1	4476	82.49880008046	1
1	4481	82.59880008046	1
1	4485	82.69880008046	1
1	4500	83.086510080379	1
1	4507	83.186510080379	1
1	4511	83.286510080379	1
1	4522	83.533771856754	1
1	4536	83.981101958075	1
1	4544	84.082772258383	1
1	4556	84.508268287389	1
1	4566	84.696853836725	1
1	4578	84.937672651185	1
1	4583	85.037672651185	1
1	4594	85.186868570686	1
1	4604	85.371800640141	1
1	4614	85.682864859606	1
1	4626	85.786280040283	1
1	4629	85.886280040283	1
1	4640	86.117507782298	1
1	4654	86.401023037012	1
1	4659	86.501023037012	1
1	4665	86.601023037012	1
1	4678	86.800375630888	1
1	4681	86.900375630888	1
1	4696	87.351323017227	1
1	4701	87.451323017227	1
1	4714	87.712715724723	1
1	4719	87.812715724723	1
1	4730	87.96417617837	1
1	4744	88.565368626601	1
1	4760	89.195647540538	1
1	4763	89.295647540538	1
1	4774	89.503368496436	1
1	4786	89.606560018205	1
1	4791	89.706560018205	1
1	4801	89.806560018205	1
1	4809	89.906560018205	1
1	4817	90.006560018205	1
1	4821	90.106560018205	1
1	4827	90.206560018205	1
1	4837	90.306560018205	1
1	4845	90.406560018205	1
1	4851	90.506560018205	1
1	4861	90.606560018205	1
1	4865	90.706560018205	1
1	4871	90.806560018205	1
1	4875	90.906560018205	1
1	4881	91.006560018205	1
1	4896	91.238932115364	1
1	4899	91.338932115364	1
1	4905	91.438932115364	1
1	4916	91.629822744251	1
1	4926	91.756143189677	1
1	4940	92.297484340425	1
1	4945	92.397484340425	1
1	4958	92.846627780167	1
1	4968	93.07992193422	1
1	4982	93.435480071312	1
1	4985	93.535480071312	1
1	4998	93.738088771354	1
1	5005	93.838088771354	1
1	5015	93.938088771354	1
1	5023	94.038088771354	1
1	5027	94.138088771354	1
1	5035	94.238088771354	1
1	5041	94.338088771354	1
1	5047	94.438088771354	1
1	5051	94.538088771354	1
1	5068	94.741684551871	1
1	5073	94.841684551871	1
1	5077	94.941684551871	1
1	5083	95.041684551871	1
1	5094	95.288493812982	1
1	5108	95.482465991801	1
1	5115	95.582465991801	1
1	5119	95.682465991801	1
1	5129	95.782465991801	1
1	5135	95.882465991801	1
1	5141	95.982465991801	1
1	5145	96.082465991801	1
1	5162	96.221475273809	1
1	5165	96.321475273809	1
1	5173	96.421475273809	1
1	5177	96.521475273809	1
1	5185	96.621475273809	1
1	5189	96.721475273809	1
1	5202	96.877647498919	1
1	5209	96.977647498919	1
1	5215	97.077647498919	1
1	5221	97.177647498919	1
1	5230	97.295839304439	1
1	5240	97.418092054073	1
1	5250	97.683535027554	1
1	5264	97.979043662393	1
1	5267	98.079043662393	1
1	5282	98.245282295124	1
1	5289	98.345282295124	1
1	5299	98.445282295124	1
1	5305	98.545282295124	1
1	5313	98.645282295124	1
1	5321	98.745282295124	1
1	5329	98.845282295124	1
1	5335	98.945282295124	1
1	5343	99.045282295124	1
1	5347	99.145282295124	1
1	5355	99.245282295124	1
1	5361	99.345282295124	1
1	5367	99.445282295124	1
1	5373	99.545282295124	1
1	5379	99.645282295124	1
1	5385	99.745282295124	1
1	5393	99.845282295124	1
1	5401	99.945282295124	1
1	5407	100.045282295124	1
1	5411	100.145282295124	1
1	5421	100.245282295124	1
1	5427	100.345282295124	1
1	5433	100.445282295124	1
1	5437	100.545282295124	1
1	5452	100.673583699041	1
1	5459	100.773583699041	1
1	5463	100.873583699041	1
1	5473	100.973583699041	1
1	5477	101.073583699041	1
1	5483	101.173583699041	1
1	5492	101.297799942896	1
1	5504	101.579667708028	1
1	5514	101.805029627085	1
1	5528	101.976583220173	1
1	5535	102.076583220173	1
1	5545	102.176583220173	1
1	5551	102.276583220173	1
1	5557	102.376583220173	1
1	5561	102.476583220173	1
1	5569	102.576583220173	1
1	5579	102.676583220173	1
1	5585	102.776583220173	1
1	5589	102.876583220173	1
1	5597	102.976583220173	1
1	5603	103.076583220173	1
1	5609	103.176583220173	1
1	5613	103.276583220173	1
1	5626	103.479945789048	1
1	5633	103.579945789048	1
1	5637	103.679945789048	1
1	5648	103.916438196486	1
1	5660	104.017680842534	1
1	5665	104.117680842534	1
1	5673	104.217680842534	1
1	5677	104.317680842534	1
1	5692	104.555979245834	1
1	5697	104.655979245834	1
1	5705	104.755979245834	1
1	5711	104.855979245834	1
1	5717	104.955979245834	1
1	5732	105.40176382197	1
1	5737	105.50176382197	1
1	5747	105.60176382197	1
1	5751	105.70176382197	1
1	5757	105.80176382197	1
1	5768	105.917808953948	1
1	5773	106.017808953948	1
1	5782	106.124167488399	1
1	5794	106.231175130819	1
1	5801	106.331175130819	1
1	5807	106.431175130819	1
1	5813	106.531175130819	1
1	5821	106.631175130819	1
1	5827	106.731175130819	1
1	5837	106.831175130819	1
1	5843	106.931175130819	1
1	5853	107.031175130819	1
1	5857	107.131175130819	1
1	5863	107.231175130819	1
1	5867	107.331175130819	1
1	5884	107.538031600555	1
1	5889	107.638031600555	1
1	5893	107.738031600555	1
1	5899	107.838031600555	1
1	5910	107.967513198107	1
1	5918	108.097253914521	1
1	5930	108.21497946746	1
1	5935	108.31497946746	1
1	5941	108.41497946746	1
1	5952	108.683173979632	1
1	5966	109.003787233195	1
1	5971	109.103787233195	1
1	5977	109.203787233195	1
1	5986	109.350520213691	1
1	5996	109.543714509952	1
1	6012	109.85820995098	1
1	6017	109.95820995098	1
1	6021	110.05820995098	1
1	6034	110.300888698524	1
1	6039	110.400888698524	1
1	6052	110.55992708974	1
1	6055	110.65992708974	1
1	6066	110.836480189104	1
1	6078	110.966675686407	1
1	6081	111.066675686407	1
1	6092	111.215184004504	1
1	6104	111.427251503935	1
1	6109	111.527251503935	1
1	6115	111.627251503935	1
1	6128	111.780161508178	1
1	6131	111.880161508178	1
1	6146	112.039815068215	1
1	6149	112.139815068215	1
1	6157	112.239815068215	1
1	6163	112.339815068215	1
1	6169	112.439815068215	1
1	6184	112.841295596785	1
1	6189	112.941295596785	1
1	6197	113.041295596785	1
1	6203	113.141295596785	1
1	6209	113.241295596785	1
1	6222	113.673036717963	1
1	6234	113.96553325474	1
1	6244	114.087936039335	1
1	6251	114.187936039335	1
1	6255	114.287936039335	1
1	6268	114.650068843339	1
1	6278	114.795870476998	1
1	6286	114.92448574239	1
1	6298	115.222676660617	1
1	6310	115.480537057385	1
1	6315	115.580537057385	1
1	6326	115.865544819899	1
1	6342	116.598069668451	1
1	6358	116.851604911665	1
1	6361	116.951604911665	1
1	6369	117.051604911665	1
1	6375	117.151604911665	1
1	6383	117.251604911665	1
1	6387	117.351604911665	1
1	6393	117.451604911665	1
1	6406	117.72866095117	1
1	6411	117.82866095117	1
1	6424	118.15246647344	1
1	6431	118.25246647344	1
1	6437	118.35246647344	1
1	6443	118.45246647344	1
1	6454	118.56420912641	1
1	6464	118.847818499575	1
1	6478	119.051176276653	1
1	6481	119.151176276653	1
1	6487	119.251176276653	1
1	6504	119.59032710891	1
1	6509	119.69032710891	1
1	6517	119.79032710891	1
1	6525	119.89032710891	1
1	6535	119.99032710891	1
1	6539	120.09032710891	1
1	6545	120.19032710891	1
1	6551	120.29032710891	1
1	6559	120.39032710891	1
1	6565	120.49032710891	1
1	6571	120.59032710891	1
1	6575	120.69032710891	1
1	6586	120.920719422432	1
1	6598	121.09176125397	1
1	6605	121.19176125397	1
1	6609	121.29176125397	1
1	6624	121.684314404496	1
1	6629	121.784314404496	1
1	6642	122.005309158083	1
1	6653	122.105309158083	1
1	6663	122.205309158083	1
1	6667	122.305309158083	1
1	6675	122.405309158083	1
1	6679	122.505309158083	1
1	6689	122.605309158083	1
1	6693	122.705309158083	1
1	6703	122.805309158083	1
1	6711	122.905309158083	1
1	6717	123.005309158083	1
1	6725	123.105309158083	1
1	6733	123.205309158083	1
1	6743	123.305309158083	1
1	6751	123.405309158083	1
1	6757	123.505309158083	1
1	6763	123.605309158083	1
1	6771	123.705309158083	1
1	6781	123.805309158083	1
1	6789	123.905309158083	1
1	6795	124.005309158083	1
1	6799	124.105309158083	1
1	6805	124.205309158083	1
1	6809	124.305309158083	1
1	6815	124.405309158083	1
1	6821	124.505309158083	1
1	6827	124.605309158083	1
1	6835	124.705309158083	1
1	6841	124.805309158083	1
1	6845	124.905309158083	1
1	6851	125.005309158083	1
1	6855	125.105309158083	1
1	6868	125.31576132916	1
1	6873	125.41576132916	1
1	6892	126.082141527643	1
1	6901	126.182141527643	1
1	6905	126.282141527643	1
1	6911	126.382141527643	1
1	6917	126.482141527643	1
1	6925	126.582141527643	1
1	6929	126.682141527643	1
1	6940	126.917062506181	1
1	6950	127.018154022814	1
1	6960	127.171411774925	1
1	6978	127.853585352704	1
1	6985	127.953585352704	1
1	6989	128.053585352704	1
1	6997	128.153585352704	1
1	7001	128.253585352704	1
1	7016	128.460968947397	1
1	7023	128.560968947397	1
1	7029	128.660968947397	1
1	7035	128.760968947397	1
1	7041	128.860968947397	1
1	7051	128.960968947397	1
1	7055	129.060968947397	1
1	7063	129.160968947397	1
1	7069	129.260968947397	1
1	7075	129.360968947397	1
1	7086	129.721701874804	1
1	7096	129.830958510759	1
1	7108	130.119519296359	1
1	7115	130.219519296359	1
1	7119	130.319519296359	1
1	7132	130.426913652082	1
1	7137	130.526913652082	1
1	7143	130.626913652082	1
1	7154	130.820782533929	1
1	7164	131.004702365764	1
1	7176	131.205743760061	1
1	7181	131.305743760061	1
1	7189	131.405743760061	1
1	7193	131.505743760061	1
1	7208	131.962694939522	1
1	7220	132.22730804835	1
1	7223	132.32730804835	1
1	7240	132.683467789949	1
1	7245	132.783467789949	1
1	7251	132.883467789949	1
1	7259	132.983467789949	1
1	7267	133.083467789949	1
1	7273	133.183467789949	1
1	7277	133.283467789949	1
1	7290	133.576635061633	1
1	7302	133.829717804947	1
1	7305	133.929717804947	1
1	7322	134.509276203583	1
1	7327	134.609276203583	1
1	7340	135.102336293113	1
1	7350	135.281509784639	1
1	7362	135.63450999985	1
1	7378	135.975566074853	1
1	7381	136.075566074853	1
1	7387	136.175566074853	1
1	7406	136.77214499534	1
1	7413	136.87214499534	1
1	7421	136.97214499534	1
1	7425	137.07214499534	1
1	7431	137.17214499534	1
1	7435	137.27214499534	1
1	7446	137.465413462818	1
1	7460	137.798595590298	1
1	7465	137.898595590298	1
1	7473	137.998595590298	1
1	7481	138.098595590298	1
1	7487	138.198595590298	1
1	7491	138.298595590298	1
1	7502	138.535375380539	1
1	7514	138.732169842702	1
1	7519	138.832169842702	1
1	7530	139.070499911322	1
1	7544	139.220094749947	1
1	7549	139.320094749947	1
1	7559	139.420094749947	1
1	7565	139.520094749947	1
1	7571	139.620094749947	1
1	7577	139.720094749947	1
1	7583	139.820094749947	1
1	7591	139.920094749947	1
1	7597	140.020094749947	1
1	7603	140.120094749947	1
1	7611	140.220094749947	1
1	7617	140.320094749947	1
1	7627	140.420094749947	1
1	7633	140.520094749947	1
1	7639	140.620094749947	1
1	7643	140.720094749947	1
1	7654	140.872924066467	1
1	7666	141.14705300664	1
1	7673	141.24705300664	1
1	7677	141.34705300664	1
1	7688	141.453958488599	1
1	7698	141.558649120924	1
1	7706	141.680223093001	1
1	7720	142.108836895173	1
1	7727	142.208836895173	1
1	7731	142.308836895173	1
1	7742	142.412643946734	1
1	7752	142.715581622217	1
1	7762	142.825565423019	1
1	7776	143.248102182514	1
1	7779	143.348102182514	1
1	7792	143.520842733922	1
1	7799	143.620842733922	1
1	7805	143.720842733922	1
1	7811	143.820842733922	1
1	7826	144.245278543949	1
1	7829	144.345278543949	1
1	7846	145.044256924314	1
1	7858	145.228864751969	1
1	7861	145.328864751969	1
1	7874	145.504239930335	1
1	7881	145.604239930335	1
1	7887	145.704239930335	1
1	7897	145.804239930335	1
1	7903	145.904239930335	1
1	7911	146.004239930335	1
1	7915	146.104239930335	1
1	7925	146.204239930335	1
1	7931	146.304239930335	1
1	7941	146.404239930335	1
1	7947	146.504239930335	1
1	7953	146.604239930335	1
1	7957	146.704239930335	1
1	7963	146.804239930335	1
1	7974	147.053217669876	1
1	7988	147.391839188489	1
1	7991	147.491839188489	1
1	8006	147.918461468736	1
1	8013	148.018461468736	1
1	8017	148.118461468736	1
1	8036	148.623762740431	1
1	8039	148.723762740431	1
1	8049	148.823762740431	1
1	8053	148.923762740431	1
1	8059	149.023762740431	1
1	8072	149.216140710613	1
1	8077	149.316140710613	1
1	8085	149.416140710613	1
1	8091	149.516140710613	1
1	8097	149.616140710613	1
1	8114	150.139344787127	1
1	8121	150.239344787127	1
1	8125	150.339344787127	1
1	8131	150.439344787127	1
1	8148	150.85224479864	1
1	8153	150.95224479864	1
1	8159	151.05224479864	1
1	8163	151.15224479864	1
1	8174	151.304454192553	1
1	8184	151.410196590759	1
1	8196	151.595159899842	1
1	8203	151.695159899842	1
1	8209	151.795159899842	1
1	8213	151.895159899842	1
1	8224	152.107618352685	1
1	8236	152.219275091895	1
1	8239	152.319275091895	1
1	8250	152.431608775902	1
1	8262	152.57898802731	1
1	8267	152.67898802731	1
1	8273	152.77898802731	1
1	8284	153.08668323938	1
1	8298	153.598921974745	1
1	8312	153.896343861786	1
1	8317	153.996343861786	1
1	8321	154.096343861786	1
1	8334	154.279152492471	1
1	8343	154.379152492471	1
1	8347	154.479152492471	1
1	8353	154.579152492471	1
1	8366	154.801766993497	1
1	8373	154.901766993497	1
1	8381	155.001766993497	1
1	8385	155.101766993497	1
1	8393	155.201766993497	1
1	8399	155.301766993497	1
1	8405	155.401766993497	1
1	8414	155.54420061798	1
1	8424	155.657482390644	1
1	8434	155.803564179366	1
1	8446	156.237831821919	1
1	8456	156.423786534011	1
1	8470	156.758832511676	1
1	8473	156.858832511676	1
1	8486	156.962798667169	1
1	8489	157.062798667169	1
1	8500	157.178355393172	1
1	8508	157.347519458208	1
1	8518	157.466750383618	1
1	8532	157.783836405815	1
1	8539	157.883836405815	1
1	8547	157.983836405815	1
1	8551	158.083836405815	1
1	8557	158.183836405815	1
1	8568	158.314197803884	1
1	8575	158.414197803884	1
1	8579	158.514197803884	1
1	8594	158.655860577016	1
1	8601	158.755860577016	1
1	8609	158.855860577016	1
1	8617	158.955860577016	1
1	8623	159.055860577016	1
1	8629	159.155860577016	1
1	8633	159.255860577016	1
1	8639	159.355860577016	1
1	8652	159.495416559161	1
1	8659	159.595416559161	1
1	8669	159.695416559161	1
1	8677	159.795416559161	1
1	8683	159.895416559161	1
1	8689	159.995416559161	1
1	8693	160.095416559161	1
1	8701	160.195416559161	1
1	8705	160.295416559161	1
1	8717	160.395416559161	1
1	8721	160.495416559161	1
1	8727	160.595416559161	1
1	8731	160.695416559161	1
1	8746	161.006107879998	1
1	8749	161.106107879998	1
1	8764	161.217529280493	1
1	8769	161.317529280493	1
1	8777	161.417529280493	1
1	8783	161.517529280493	1
1	8789	161.617529280493	1
1	8795	161.717529280493	1
1	8803	161.817529280493	1
1	8807	161.917529280493	1
1	8818	162.086915994959	1
1	8834	162.532897245881	1
1	8841	162.632897245881	1
1	8847	162.732897245881	1
1	8855	162.832897245881	1
1	8861	162.932897245881	1
1	8867	163.032897245881	1
1	8871	163.132897245881	1
1	8886	163.567456772999	1
1	8894	163.700736079848	1
1	8906	163.969937046948	1
1	8918	164.463534371487	1
1	8932	164.832931011898	1
1	8937	164.932931011898	1
1	8943	165.032931011898	1
1	8956	165.179401001162	1
1	8959	165.279401001162	1
1	8970	165.518594659493	1
1	8980	165.691915868805	1
1	8990	165.798859340674	1
1	9004	165.955733134592	1
1	9007	166.055733134592	1
1	9016	166.155733134592	1
1	9021	166.255823318884	1
1	9036	166.633806622961	1
1	9041	166.733806622961	1
1	9049	166.833806622961	1
1	9053	166.933806622961	1
1	9070	167.562912858953	1
1	9080	167.672993354006	1
1	9085	167.772993354006	1
1	9094	167.923055468097	1
1	9108	168.169558453378	1
1	9115	168.269558453378	1
1	9121	168.369558453378	1
1	9125	168.469558453378	1
1	9138	168.578345087429	1
1	9143	168.678345087429	1
1	9149	168.778345087429	1
1	9158	168.920202549935	1
1	9170	169.247609633328	1
1	9182	169.574612700401	1
1	9192	169.892785868928	1
1	9206	170.037460833192	1
1	9211	170.137460833192	1
1	9217	170.237460833192	1
1	9221	170.337460833192	1
1	9236	170.787593377867	1
1	9244	170.905595845186	1
1	9256	171.213703717766	1
1	9266	171.359511063038	1
1	9276	171.46430159808	1
1	9281	171.56430159808	1
1	9292	171.919178918222	1
1	9302	172.03635423672	1
1	9314	172.153284491045	1
1	9317	172.253284491045	1
1	9330	172.557806182256	1
1	9338	172.729048510784	1
1	9352	172.994751508682	1
1	9355	173.094751508682	1
1	9372	173.563169198009	1
1	9375	173.663169198009	1
1	9394	173.948210902331	1
1	9401	174.048210902331	1
1	9409	174.148210902331	1
1	9415	174.248210902331	1
1	9419	174.348210902331	1
1	9425	174.448210902331	1
1	9431	174.548210902331	1
1	9437	174.648210902331	1
1	9445	174.748210902331	1
1	9451	174.848210902331	1
1	9455	174.948210902331	1
1	9470	175.180161807806	1
1	9475	175.280161807806	1
1	9481	175.380161807806	1
1	9492	175.662696554331	1
1	9504	175.799368425542	1
1	9509	175.899368425542	1
1	9515	175.999368425542	1
1	9526	176.286536020648	1
1	9540	176.416978324774	1
1	9543	176.516978324774	1
1	9553	176.616978324774	1
1	9559	176.716978324774	1
1	9565	176.816978324774	1
1	9575	176.916978324774	1
1	9581	177.016978324774	1
1	9587	177.116978324774	1
1	9593	177.216978324774	1
1	9597	177.316978324774	1
1	9610	177.54573584478	1
1	9615	177.64573584478	1
1	9630	177.90453586007	1
1	9637	178.00453586007	1
1	9645	178.10453586007	1
1	9653	178.20453586007	1
1	9657	178.30453586007	1
1	9663	178.40453586007	1
1	9669	178.50453586007	1
1	9677	178.60453586007	1
1	9681	178.70453586007	1
1	9694	178.81067232341	1
1	9697	178.91067232341	1
1	9712	179.238757326784	1
1	9717	179.338757326784	1
1	9723	179.438757326784	1
1	9734	179.625789945566	1
1	9742	179.738705393372	1
1	9754	179.849743222084	1
1	9759	179.949743222084	1
1	9765	180.049743222084	1
1	9786	180.891560940358	1
1	9791	180.991560940358	1
1	9799	181.091560940358	1
1	9805	181.191560940358	1
1	9811	181.291560940358	1
1	9821	181.391560940358	1
1	9825	181.491560940358	1
1	9831	181.591560940358	1
1	9844	182.003772155435	1
1	9858	182.530868978878	1
1	9865	182.630868978878	1
1	9871	182.730868978878	1
1	9879	182.830868978878	1
1	9885	182.930868978878	1
1	9895	183.030868978878	1
1	9899	183.130868978878	1
1	9905	183.230868978878	1
1	9916	183.439224252745	1
1	9928	183.579411315197	1
1	9933	183.679411315197	1
1	9943	183.779411315197	1
1	9947	183.879411315197	1
1	9957	183.979411315197	1
1	9961	184.079411315197	1
1	9967	184.179411315197	1
1	9978	184.383082711811	1
1	9988	184.491473047441	1
1	9995	184.591473047441	1
1	9999	184.691473047441	1
1	10014	185.040410746206	1
1	10017	185.140410746206	1
1	10030	185.266377947623	1
1	10037	185.366377947623	1
1	10041	185.466377947623	1
1	10054	185.941394027685	1
1	10068	186.076154382651	1
1	10075	186.176154382651	1
1	10081	186.276154382651	1
1	10089	186.376154382651	1
1	10095	186.476154382651	1
1	10101	186.576154382651	1
1	10107	186.676154382651	1
1	10113	186.776154382651	1
1	10124	186.953424477557	1
1	10134	187.11488304647	1
1	10143	187.21488304647	1
1	10147	187.31488304647	1
1	10153	187.41488304647	1
1	10172	188.358903361619	1
1	10188	188.985219902253	1
1	10193	189.085219902253	1
1	10199	189.185219902253	1
1	10208	189.331145044693	1
1	10220	189.74735823793	1
1	10230	189.899602081685	1
1	10240	190.066832109796	1
1	10252	190.318372319745	1
1	10257	190.418372319745	1
1	10270	190.925774009941	1
1	10280	191.050313106956	1
1	10292	191.381123227526	1
1	10304	191.852872860431	1
1	10316	192.069818996254	1
1	10323	192.169818996254	1
1	10329	192.269818996254	1
1	10341	192.369818996254	1
1	10345	192.469818996254	1
1	10357	192.569818996254	1
1	10365	192.669818996254	1
1	10375	192.769818996254	1
1	10381	192.869818996254	1
1	10387	192.969818996254	1
1	10391	193.069818996254	1
1	10399	193.169818996254	1
1	10403	193.269818996254	1
1	10409	193.369818996254	1
1	10417	193.469818996254	1
1	10423	193.569818996254	1
1	10427	193.669818996254	1
1	10433	193.769818996254	1
1	10446	193.986011695086	1
1	10455	194.086011695086	1
1	10461	194.186011695086	1
1	10467	194.286011695086	1
1	10475	194.386011695086	1
1	10479	194.486011695086	1
1	10485	194.586011695086	1
1	10496	194.844278257421	1
1	10506	195.049486360627	1
1	10518	195.473464956212	1
1	10532	195.756194648343	1
1	10535	195.856194648343	1
1	10548	196.17622297234	1
1	10556	196.312252438436	1
1	10570	196.927242582336	1
1	10584	197.260810004699	1
1	10589	197.360810004699	1
1	10602	197.565139651364	1
1	10609	197.665139651364	1
1	10615	197.765139651364	1
1	10621	197.865139651364	1
1	10627	197.965139651364	1
1	10638	198.08703574832	1
1	10645	198.18703574832	1
1	10649	198.28703574832	1
1	10662	198.622408662919	1
1	10678	198.919551957338	1
1	10685	199.019551957338	1
1	10691	199.119551957338	1
1	10697	199.219551957338	1
1	10705	199.319551957338	1
1	10717	199.419551957338	1
1	10721	199.519551957338	1
1	10727	199.619551957338	1
1	10731	199.719551957338	1
1	10737	199.819551957338	1
1	10741	199.919551957338	1
2	11	0.319581175685	1
2	20	0.454365233958	1
2	27	0.642754847665	1
2	42	0.921695479476	1
2	48	1.060178949197	1
2	63	1.35291074958	1
2	69	1.470990920577	1
2	83	1.752835528707	1
2	90	1.852835528707	1
2	100	1.982043765667	1
2	111	2.137767660767	2
2	119	2.237767660767	2
2	123	2.337767660767	3
2	127	2.437767660767	3
2	141	2.683367299033	3
2	145	2.783367299033	3
2	163	3.189361841386	2
2	169	3.289361841386	3
2	175	3.389361841386	3
2	180	3.489361841386	4
2	187	3.642406948135	4
2	200	3.893238628184	4
2	211	4.006139745181	4
2	218	4.106139745181	5
2	227	4.230137058199	5
2	229	4.330137058199	6
2	241	4.694705972428	5
2	261	4.965961362069	4
2	269	5.065961362069	5
2	277	5.165961362069	5
2	281	5.265961362069	6
2	289	5.365961362069	6
2	293	5.465961362069	7
2	299	5.565961362069	7
2	301	5.665961362069	8
2	313	6.021716592655	7
2	327	6.247584231451	7
2	329	6.347584231451	8
2	341	6.576315998192	7
2	351	6.882449830579	7
2	369	7.45923311095	5
2	373	7.55923311095	5
2	383	7.796275420411	5
2	397	8.038375731645	5
2	402	8.138375731645	6
2	409	8.241459813767	6
2	424	8.468940209866	6
2	433	8.639331051123	6
2	438	8.739331051123	7
2	448	8.849496367873	7
2	460	9.002711149025	7
2	469	9.133559328281	8
2	475	9.233559328281	8
2	477	9.333559328281	9
2	489	9.706557050824	8
2	504	9.919761752838	8
2	517	10.030435846601	8
2	525	10.130435846601	9
2	531	10.230435846601	9
2	537	10.330435846601	10
2	543	10.430435846601	10
2	549	10.530435846601	11
2	557	10.630435846601	11
2	563	10.730435846601	12
2	575	10.830435846601	12
2	581	10.930435846601	13
2	591	11.030435846601	13
2	595	11.130435846601	14
2	605	11.230435846601	14
2	609	11.330435846601	15
2	619	11.430435846601	15
2	623	11.530435846601	16
2	629	11.630435846601	16
2	633	11.730435846601	17
2	639	11.830435846601	17
2	644	11.930435846601	18
2	651	12.058989997582	18
2	666	12.408327003714	17
2	679	12.580097846919	17
2	685	12.680097846919	18
2	693	12.780097846919	18
2	697	12.880097846919	19
2	701	12.980097846919	19
2	716	13.31414424049	19
2	727	13.493560410409	19
2	733	13.593560410409	19
2	735	13.693560410409	20
2	750	14.043593940513	19
2	760	14.208430810646	19
2	772	14.367255930369	19
2	785	14.533845547222	20
2	791	14.633845547222	20
2	797	14.733845547222	21
2	805	14.833845547222	21
2	811	14.933845547222	22
2	821	15.033845547222	22
2	825	15.133845547222	23
2	835	15.233845547222	23
2	841	15.333845547222	24
2	849	15.433845547222	24
2	853	15.533845547222	25
2	859	15.633845547222	25
2	863	15.733845547222	26
2	867	15.833845547222	26
2	879	16.255192962114	25
2	897	16.734134958422	24
2	905	16.834134958422	24
2	913	16.934134958422	25
2	919	17.034134958422	25
2	923	17.134134958422	26
2	927	17.234134958422	26
2	944	17.925704385627	24
2	956	18.084515792891	24
2	967	18.215303170935	24
2	973	18.315303170935	25
2	983	18.415303170935	25
2	987	18.515303170935	26
2	999	18.615303170935	26
2	1005	18.715303170935	27
2	1013	18.815303170935	27
2	1017	18.915303170935	28
2	1027	19.015303170935	28
2	1033	19.115303170935	29
2	1039	19.215303170935	29
2	1047	19.315303170935	30
2	1053	19.415303170935	30
2	1057	19.515303170935	31
2	1063	19.615303170935	31
2	1065	19.715303170935	32
2	1079	19.939224281579	32
2	1086	20.039224281579	32
2	1093	20.171166782372	32
2	1111	20.429216531029	32
2	1115	20.529216531029	33
2	1121	20.629216531029	33
2	1126	20.729216531029	34
2	1138	20.865826078039	34
2	1147	21.033798232902	34
2	1149	21.133798232902	35
2	1163	21.58499170505	33
2	1175	22.147346423988	32
2	1191	22.463144619107	31
2	1198	22.563144619107	31
2	1203	22.664882647566	32
2	1223	23.229171740242	30
2	1229	23.329171740242	31
2	1235	23.429171740242	31
2	1244	23.529171740242	32
2	1257	23.66867137756	32
2	1263	23.76867137756	32
2	1267	23.86867137756	33
2	1273	23.96867137756	33
2	1275	24.06867137756	34
2	1295	24.398725154543	33
2	1303	24.498725154543	34
2	1309	24.598725154543	34
2	1317	24.698725154543	35
2	1323	24.798725154543	35
2	1327	24.898725154543	36
2	1333	24.998725154543	36
2	1340	25.098725154543	37
2	1349	25.205799991015	37
2	1351	25.305799991015	38
2	1369	25.661619414842	37
2	1377	25.761619414842	37
2	1383	25.861619414842	38
2	1391	25.961619414842	38
2	1395	26.061619414842	39
2	1399	26.161619414842	39
2	1415	26.435929006918	39
2	1421	26.535929006918	40
2	1427	26.635929006918	40
2	1429	26.735929006918	41
2	1445	27.07282961963	40
2	1449	27.17282961963	40
2	1464	27.468672842087	40
2	1473	27.597357188248	40
2	1475	27.697357188248	41
2	1495	28.0077611499	40
2	1501	28.1077611499	41
2	1507	28.2077611499	41
2	1511	28.3077611499	42
2	1520	28.4077611499	42
2	1531	28.557732391108	42
2	1535	28.657732391108	43
2	1542	28.757732391108	43
2	1547	28.924189167785	44
2	1567	29.200381538508	43
2	1573	29.300381538508	44
2	1581	29.400381538508	44
2	1591	29.500381538508	45
2	1597	29.600381538508	45
2	1601	29.700381538508	46
2	1609	29.800381538508	46
2	1619	29.900381538508	47
2	1625	30.000381538508	47
2	1631	30.100381538508	48
2	1641	30.200381538508	48
2	1645	30.300381538508	49
2	1653	30.400381538508	49
2	1657	30.500381538508	50
2	1665	30.600381538508	50
2	1671	30.700381538508	51
2	1677	30.800381538508	51
2	1681	30.900381538508	52
2	1685	31.000381538508	52
2	1701	31.313720873274	52
2	1707	31.413720873274	52
2	1712	31.513720873274	53
2	1722	31.653463303566	53
2	1733	31.78222224874	53
2	1738	31.88222224874	54
2	1745	31.992362450346	54
2	1758	32.331922486725	54
2	1770	32.45930560846	54
2	1779	32.612104417963	54
2	1781	32.712104417963	55
2	1793	32.983193451668	54
2	1808	33.441035700201	53
2	1821	33.611976894731	53
2	1825	33.711976894731	54
2	1829	33.811976894731	54
2	1839	34.071346389977	54
2	1858	34.647797377464	52
2	1869	34.828133162551	52
2	1875	34.928133162551	53
2	1881	35.028133162551	53
2	1883	35.128133162551	54
2	1901	35.370276294113	53
2	1905	35.470276294113	54
2	1912	35.570276294113	54
2	1917	35.694429783295	55
2	1935	36.013854692705	54
2	1941	36.113854692705	55
2	1947	36.213854692705	55
2	1949	36.313854692705	56
2	1961	36.564132031923	55
2	1976	37.068787599881	54
2	1986	37.245695039928	54
2	1996	37.378874251494	54
2	2006	37.572660641814	54
2	2014	37.734335874434	55
2	2024	37.838705793569	55
2	2031	37.952985959263	55
2	2049	38.421806212912	54
2	2055	38.521806212912	55
2	2063	38.621806212912	55
2	2069	38.721806212912	56
2	2075	38.821806212912	56
2	2080	38.921806212912	57
2	2095	39.058618835904	57
2	2103	39.158618835904	57
2	2107	39.258618835904	58
2	2115	39.358618835904	58
2	2121	39.458618835904	59
2	2129	39.558618835904	59
2	2137	39.658618835904	60
2	2143	39.758618835904	60
2	2149	39.858618835904	61
2	2155	39.958618835904	61
2	2160	40.058618835904	62
2	2171	40.184692452394	62
2	2173	40.284692452394	63
2	2195	40.584803753648	62
2	2203	40.684803753648	63
2	2209	40.784803753648	63
2	2215	40.884803753648	64
2	2223	40.984803753648	64
2	2231	41.084803753648	65
2	2237	41.184803753648	65
2	2243	41.284803753648	66
2	2249	41.384803753648	66
2	2253	41.484803753648	67
2	2259	41.584803753648	67
2	2261	41.684803753648	68
2	2274	41.950147783577	68
2	2289	42.108525224876	68
2	2295	42.208525224876	68
2	2299	42.308525224876	69
2	2303	42.408525224876	69
2	2323	42.629093637017	69
2	2327	42.729093637017	70
2	2333	42.829093637017	70
2	2337	42.929093637017	71
2	2341	43.029093637017	71
2	2353	43.442552402418	70
2	2369	43.776289601002	69
2	2374	43.876289601002	70
2	2384	44.067659124675	70
2	2394	44.183170653607	70
2	2409	44.365723577908	70
2	2413	44.465723577908	71
2	2419	44.565723577908	71
2	2424	44.665723577908	72
2	2435	44.864301094053	72
2	2442	44.964301094053	72
2	2451	45.117344071182	73
2	2455	45.217344071182	73
2	2473	46.227172041831	69
2	2487	46.503131959593	69
2	2491	46.603131959593	69
2	2501	46.879939066063	69
2	2521	47.183825388628	68
2	2527	47.283825388628	69
2	2537	47.383825388628	69
2	2541	47.483825388628	70
2	2549	47.583825388628	70
2	2553	47.683825388628	71
2	2559	47.783825388628	71
2	2564	47.883825388628	72
2	2571	48.022320512558	72
2	2581	48.322618486887	72
2	2597	48.569626352086	71
2	2604	48.669626352086	72
2	2619	48.775408928067	72
2	2623	48.875408928067	73
2	2629	48.975408928067	73
2	2633	49.075408928067	74
2	2637	49.175408928067	74
2	2650	49.49975443541	74
2	2663	49.679070220352	74
2	2671	49.779070220352	74
2	2675	49.879070220352	75
2	2684	49.979070220352	75
2	2691	50.113584665884	76
2	2695	50.213584665884	76
2	2709	50.423287459142	76
2	2711	50.523287459142	77
2	2729	51.048018324647	75
2	2734	51.148018324647	76
2	2747	51.34102007517	76
2	2755	51.44102007517	76
2	2761	51.54102007517	77
2	2767	51.64102007517	77
2	2769	51.74102007517	78
2	2784	52.098935754524	77
2	2791	52.295330509127	77
2	2807	52.50327421193	77
2	2815	52.60327421193	77
2	2825	52.70327421193	78
2	2839	52.80327421193	78
2	2843	52.90327421193	79
2	2849	53.00327421193	79
2	2857	53.10327421193	80
2	2865	53.20327421193	80
2	2869	53.30327421193	81
2	2875	53.40327421193	81
2	2881	53.50327421193	82
2	2889	53.60327421193	82
2	2893	53.70327421193	83
2	2899	53.80327421193	83
2	2903	53.90327421193	84
2	2910	54.00327421193	84
2	2915	54.145366132262	85
2	2930	54.540198961644	84
2	2940	54.680769769303	84
2	2952	54.863589289805	84
2	2961	54.999783893904	84
2	2968	55.099783893904	85
2	2979	55.234262098541	85
2	2987	55.334262098541	86
2	2993	55.434262098541	86
2	2999	55.534262098541	87
2	3007	55.634262098541	87
2	3013	55.734262098541	88
2	3019	55.834262098541	88
2	3021	55.934262098541	89
2	3037	56.600614750021	86
2	3055	57.008816988408	85
2	3059	57.108816988408	86
2	3066	57.208816988408	86
2	3076	57.368726089573	86
2	3081	57.483788037759	87
2	3096	57.783363832882	86
2	3101	57.917070619419	87
2	3114	58.125522178985	87
2	3121	58.321989984689	87
2	3141	58.822680134767	85
2	3149	58.922680134767	86
2	3161	59.022680134767	86
2	3167	59.122680134767	87
2	3173	59.222680134767	87
2	3177	59.322680134767	88
2	3183	59.422680134767	88
2	3189	59.522680134767	89
2	3197	59.622680134767	89
2	3201	59.722680134767	90
2	3208	59.822680134767	90
2	3221	60.014565262146	90
2	3225	60.114565262146	91
2	3229	60.214565262146	91
2	3245	60.733125597651	90
2	3260	60.833125597651	90
2	3269	60.942998197671	91
2	3277	61.042998197671	91
2	3283	61.142998197671	92
2	3289	61.242998197671	92
2	3293	61.342998197671	93
2	3301	61.442998197671	93
2	3305	61.542998197671	94
2	3313	61.642998197671	94
2	3317	61.742998197671	95
2	3321	61.842998197671	95
2	3337	62.320061072022	94
2	3346	62.420061072022	94
2	3357	62.535439451308	95
2	3363	62.635439451308	95
2	3367	62.735439451308	96
2	3376	62.835439451308	96
2	3385	62.975433243268	96
2	3390	63.075433243268	97
2	3400	63.190165652575	97
2	3413	63.360796428406	97
2	3417	63.460796428406	98
2	3424	63.560796428406	98
2	3432	63.718721552831	99
2	3442	63.834089522995	99
2	3449	63.974198572886	99
2	3462	64.314674575254	99
2	3469	64.502805065768	99
2	3491	65.198752944724	96
2	3497	65.298752944724	97
2	3505	65.398752944724	97
2	3509	65.498752944724	98
2	3513	65.598752944724	98
2	3533	65.940364428668	98
2	3539	66.040364428668	98
2	3545	66.140364428668	99
2	3551	66.240364428668	99
2	3555	66.340364428668	100
2	3562	66.440364428668	100
2	3573	66.583619374857	100
2	3575	66.683619374857	101
2	3591	66.993649093178	100
2	3596	67.093649093178	101
2	3608	67.221872362624	101
2	3617	67.354997651897	101
2	3619	67.454997651897	102
2	3632	67.68060510665	102
2	3644	67.790610257625	102
2	3651	67.93933590156	103
2	3655	68.03933590156	103
2	3673	68.248467390476	103
2	3677	68.348467390476	104
2	3683	68.448467390476	104
2	3688	68.548467390476	105
2	3695	68.675551623412	105
2	3711	69.000416175543	104
2	3716	69.100416175543	105
2	3723	69.202076988454	105
2	3739	69.660054688893	104
2	3746	69.760054688893	104
2	3757	69.925878373313	105
2	3763	70.025878373313	105
2	3768	70.125878373313	106
2	3775	70.294561049997	106
2	3791	70.73623309161	105
2	3798	70.83623309161	105
2	3805	70.972205309961	105
2	3823	71.290617308052	105
2	3829	71.390617308052	105
2	3833	71.490617308052	106
2	3837	71.590617308052	106
2	3850	71.90057728868	106
2	3863	72.010111438466	106
2	3869	72.110111438466	107
2	3879	72.210111438466	107
2	3885	72.310111438466	108
2	3891	72.410111438466	108
2	3899	72.510111438466	109
2	3905	72.610111438466	109
2	3911	72.710111438466	110
2	3921	72.810111438466	110
2	3929	72.910111438466	111
2	3937	73.010111438466	111
2	3941	73.110111438466	112
2	3947	73.210111438466	112
2	3953	73.310111438466	113
2	3959	73.410111438466	113
2	3961	73.510111438466	114
2	3971	73.750239483914	114
2	3989	73.956441476984	113
2	3995	74.056441476984	114
2	4007	74.156441476984	114
2	4011	74.256441476984	115
2	4019	74.356441476984	115
2	4023	74.456441476984	116
2	4031	74.556441476984	116
2	4037	74.656441476984	117
2	4045	74.756441476984	117
2	4051	74.856441476984	118
2	4057	74.956441476984	118
2	4059	75.056441476984	119
2	4079	75.293074982371	119
2	4089	75.393074982371	119
2	4095	75.493074982371	120
2	4103	75.593074982371	120
2	4107	75.693074982371	121
2	4113	75.793074982371	121
2	4117	75.893074982371	122
2	4123	75.993074982371	122
2	4130	76.093074982371	123
[...]
3	6152	112.15291074958	26.570145889974
3	6166	112.35291074958	26.666730709297
3	6174	112.55291074958	26.814717713729
3	6179	112.75291074958	26.735502967282
3	6192	112.95291074958	26.651987712568
3	6206	113.15291074958	26.819573280079
3	6214	113.35291074958	26.87527149109
3	6216	113.55291074958	26.852635118692
3	6224	113.75291074958	27.050636331968
3	6231	113.95291074958	26.701687732353
3	6248	114.15291074958	26.837707360548
3	6258	114.35291074958	26.740295024857
3	6265	114.55291074958	26.916244910684
3	6275	114.75291074958	26.88883457121
3	6288	114.95291074958	26.487642122979
3	6295	115.15291074958	26.057363209042
3	6302	115.35291074958	26.159743607688
3	6312	115.55291074958	26.149642253144
3	6320	115.75291074958	26.246450731375
3	6328	115.95291074958	26.445842283177
3	6332	116.15291074958	26.492814219984
3	6334	116.35291074958	26.645714535275
3	6339	116.55291074958	26.776745837609
3	6349	116.75291074958	26.897475753364
3	6364	116.95291074958	27.075391997767
3	6378	117.15291074958	27.191540847268
3	6390	117.35291074958	27.132545840307
3	6398	117.55291074958	27.279506354018
3	6408	117.75291074958	27.447926360787
3	6416	117.95291074958	27.571019164393
3	6426	118.15291074958	27.663612366694
3	6440	118.35291074958	27.844325331103
3	6451	118.55291074958	28.00622362435
3	6461	118.75291074958	27.614078634216
3	6471	118.95291074958	27.798633379658
3	6484	119.15291074958	27.920471556495
3	6492	119.35291074958	27.823188005329
3	6499	119.55291074958	27.896867559903
3	6514	119.75291074958	27.555526409155
3	6532	119.95291074958	27.692377414448
3	6542	120.15291074958	27.406382969413
3	6556	120.35291074958	27.37308881536
3	6568	120.55291074958	27.217530678268
3	6578	120.75291074958	27.338036441377
3	6588	120.95291074958	27.314921978226
3	6602	121.15291074958	27.448149577315
3	6612	121.35291074958	27.587372144964
3	6616	121.55291074958	27.710873519887
3	6626	121.75291074958	27.898186596123
3	6639	121.95291074958	28.044292510354
3	6658	122.15291074958	28.165847362306
3	6672	122.35291074958	28.141952537677
3	6682	122.55291074958	28.302311968057
3	6700	122.75291074958	28.111326197709
3	6714	122.95291074958	28.290007371
3	6728	123.15291074958	28.430982009332
3	6746	123.35291074958	28.622745903449
3	6760	123.55291074958	28.364516936598
3	6774	123.75291074958	28.370544757779
3	6792	123.95291074958	28.568437769093
3	6802	124.15291074958	28.766713781562
3	6812	124.35291074958	28.85235022893
3	6824	124.55291074958	28.831519605231
3	6838	124.75291074958	28.977033272396
3	6848	124.95291074958	29.153193295448
3	6858	125.15291074958	29.031535475771
3	6870	125.35291074958	29.219106134833
3	6878	125.55291074958	29.375829228281
3	6880	125.75291074958	29.561748046189
3	6882	125.95291074958	29.592041231048
3	6898	126.15291074958	29.624808117762
3	6908	126.35291074958	29.575363250661
3	6920	126.55291074958	29.73313464729
3	6932	126.75291074958	29.848250466045
3	6945	126.95291074958	29.96640180883
3	6957	127.15291074958	29.957171445141
3	6964	127.35291074958	30.034918695507
3	6966	127.55291074958	29.969475722026
3	6968	127.75291074958	29.873967087187
3	6982	127.95291074958	30.002495299797
3	6994	128.15291074958	30.007728454456
3	7004	128.35291074958	30.192498341865
3	7020	128.55291074958	30.345224337558
3	7032	128.75291074958	30.500839056571
3	7048	128.95291074958	30.679693873909
3	7060	129.15291074958	30.745244493156
3	7072	129.35291074958	30.936699513286
3	7080	129.55291074958	31.03962330768
3	7091	129.75291074958	31.185779109923
3	7100	129.95291074958	31.285383679125
3	7110	130.15291074958	31.439787945241
3	7125	130.35291074958	31.547772081802
3	7140	130.55291074958	31.656412413503
3	7151	130.75291074958	31.744874934737
3	7161	130.95291074958	31.772413726575
3	7171	131.15291074958	31.88490016092
3	7186	131.35291074958	31.90647572322
3	7196	131.55291074958	31.819249384574
3	7200	131.75291074958	31.969238883818
3	7205	131.95291074958	32.084013311257
3	7215	132.15291074958	32.21232561313
3	7226	132.35291074958	32.149268416376
3	7230	132.55291074958	32.319290085688
3	7242	132.75291074958	32.412488875844
3	7256	132.95291074958	32.379427050539
3	7270	133.15291074958	32.565876463927
3	7280	133.35291074958	32.757097279085
3	7287	133.55291074958	32.79525824281
3	7297	133.75291074958	32.816156237221
3	7308	133.95291074958	32.981443091428
3	7312	134.15291074958	32.955210806684
3	7314	134.35291074958	32.873343041552
3	7324	134.55291074958	32.847981122495
3	7332	134.75291074958	32.876427529407
3	7334	134.95291074958	33.031378767364
3	7342	135.15291074958	33.201909484479
3	7352	135.35291074958	33.331693516494
3	7359	135.55291074958	33.520830649977
3	7366	135.75291074958	33.587966553073
3	7375	135.95291074958	33.786506241672
3	7384	136.15291074958	33.93871866449
3	7392	136.35291074958	33.804806066074
3	7394	136.55291074958	33.935297561943
3	7401	136.75291074958	34.113809608736
3	7418	136.95291074958	34.280889384602
3	7428	137.15291074958	34.254320144418
3	7438	137.35291074958	34.36193225185
3	7448	137.55291074958	34.173064960532
3	7457	137.75291074958	34.366219253108
3	7468	137.95291074958	34.377835230457
3	7484	138.15291074958	34.336572553094
3	7494	138.35291074958	34.435329907046
3	7504	138.55291074958	34.623318078654
3	7516	138.75291074958	34.72822825968
3	7524	138.95291074958	34.81849645881
3	7535	139.15291074958	34.697031503746
3	7554	139.35291074958	34.842063809971
3	7568	139.55291074958	34.941529028485
3	7580	139.75291074958	35.012278904716
3	7594	139.95291074958	35.131968252052
3	7608	140.15291074958	34.85124692761
3	7622	140.35291074958	35.022552520725
3	7636	140.55291074958	35.06696575661
3	7646	140.75291074958	35.170229482935
3	7656	140.95291074958	35.364829058473
3	7670	141.15291074958	35.335201795632
3	7680	141.35291074958	35.450778015359
3	7693	141.55291074958	35.528843261181
3	7708	141.75291074958	35.621835618761
3	7712	141.95291074958	35.795706344705
3	7722	142.15291074958	35.880468343425
3	7737	142.35291074958	36.057175505599
3	7746	142.55291074958	36.085606198731
3	7757	142.75291074958	36.128362832988
3	7766	142.95291074958	36.279587202415
3	7771	143.15291074958	36.363360845489
3	7782	143.35291074958	36.5426678607
3	7794	143.55291074958	36.683559224908
3	7808	143.75291074958	36.808755374977
3	7816	143.95291074958	36.984903572457
3	7821	144.15291074958	36.714979149025
3	7832	144.35291074958	36.888849341538
3	7836	144.55291074958	37.0577715642
3	7838	144.75291074958	37.236983540987
3	7843	144.95291074958	37.085497551473
3	7853	145.15291074958	37.155756835059
3	7864	145.35291074958	37.23803128212
3	7876	145.55291074958	37.423511661274
3	7890	145.75291074958	37.531939234524
3	7906	145.95291074958	37.369836769948
3	7920	146.15291074958	37.249223516385
3	7934	146.35291074958	37.436230967218
3	7950	146.55291074958	37.544190335757
3	7960	146.75291074958	37.502490535889
3	7968	146.95291074958	37.509296239628
3	7976	147.15291074958	37.3948007986
3	7985	147.35291074958	37.51842042557
3	7994	147.55291074958	37.703702497176
3	7998	147.75291074958	37.552122051056
3	8010	147.95291074958	37.668773214082
3	8020	148.15291074958	37.69308365984
3	8024	148.35291074958	37.79693762805
3	8029	148.55291074958	37.816530560476
3	8044	148.75291074958	37.886335063173
3	8056	148.95291074958	38.02677292067
3	8069	149.15291074958	38.037826745076
3	8080	149.35291074958	38.025759245645
3	8094	149.55291074958	38.22164293058
3	8102	149.75291074958	38.270027556115
3	8104	149.95291074958	38.272849241402
3	8116	150.15291074958	38.431679713101
3	8128	150.35291074958	38.413195681365
3	8136	150.55291074958	38.586946424132
3	8141	150.75291074958	38.785474258672
3	8156	150.95291074958	38.746740840253
3	8166	151.15291074958	38.891453399311
3	8179	151.35291074958	38.611715152795
3	8193	151.55291074958	38.771951187584
3	8206	151.75291074958	38.880039370854
3	8216	151.95291074958	38.975035525437
3	8231	152.15291074958	39.040935315035
3	8245	152.35291074958	38.779974031617
3	8259	152.55291074958	38.68747749484
3	8270	152.75291074958	38.765074710245
3	8278	152.95291074958	38.873416076052
3	8286	153.15291074958	39.058033292101
3	8290	153.35291074958	38.802941906241
3	8295	153.55291074958	38.857140272582
3	8302	153.75291074958	38.92852500719
3	8314	153.95291074958	38.830334088963
3	8324	154.15291074958	38.772473692195
3	8338	154.35291074958	38.946742898089
3	8350	154.55291074958	38.787465929681
3	8363	154.75291074958	38.254941081129
3	8376	154.95291074958	38.201405837915
3	8388	155.15291074958	38.388080980517
3	8402	155.35291074958	38.562032496036
3	8416	155.55291074958	38.747149267063
3	8429	155.75291074958	38.798457341199
3	8438	155.95291074958	38.847849665117
3	8443	156.15291074958	38.971616747009
3	8453	156.35291074958	38.72434979841
3	8460	156.55291074958	38.914634944492
3	8467	156.75291074958	38.70054427614
3	8481	156.95291074958	38.817788734251
3	8495	157.15291074958	38.928826494652
3	8510	157.35291074958	39.083927237289
3	8520	157.55291074958	39.08880162317
3	8529	157.75291074958	39.005192250005
3	8544	157.95291074958	39.001834472927
3	8554	158.15291074958	39.196753694641
3	8570	158.35291074958	39.341747921572
3	8582	158.55291074958	39.06268364067
3	8598	158.75291074958	39.2435476046
3	8614	158.95291074958	39.377686056762
3	8626	159.15291074958	39.48967073576
3	8636	159.35291074958	39.623497514151
3	8654	159.55291074958	39.7489161212
3	8672	159.75291074958	39.946446628602
3	8686	159.95291074958	40.032601912465
3	8696	160.15291074958	40.201874072393
3	8712	160.35291074958	40.121878001866
3	8724	160.55291074958	40.244938953092
3	8734	160.75291074958	40.329669566483
3	8743	160.95291074958	40.132291327148
3	8759	161.15291074958	40.16124949561
3	8774	161.35291074958	40.345509583511
3	8786	161.55291074958	40.404584285632
3	8798	161.75291074958	40.168696345084
3	8810	161.95291074958	40.353145719588
3	8820	162.15291074958	40.247701591497
3	8824	162.35291074958	40.433220399643
3	8838	162.55291074958	40.533766394874
3	8850	162.75291074958	40.660855434293
3	8864	162.95291074958	40.780506535036
3	8874	163.15291074958	40.563106830917
3	8878	163.35291074958	40.647223739788
3	8883	163.55291074958	40.736917636569
3	8896	163.75291074958	40.69551505568
3	8903	163.95291074958	40.766955899642
3	8910	164.15291074958	40.918464289616
3	8912	164.35291074958	40.950792386636
3	8920	164.55291074958	40.885837142159
3	8929	164.75291074958	40.99397057145
3	8940	164.95291074958	41.090850804165
3	8951	165.15291074958	40.672809031559
3	8962	165.35291074958	40.686183738189
3	8972	165.55291074958	40.33724942042
3	8985	165.75291074958	39.770869221937
3	9001	165.95291074958	39.963858986677
3	9010	166.15291074958	40.084954367313
3	9024	166.35291074958	40.229280109193
3	9033	166.55291074958	40.402598595515
3	9044	166.75291074958	40.335458394281
3	9056	166.95291074958	40.38272575746
3	9060	167.15291074958	40.335948243399
3	9062	167.35291074958	40.281598974655
3	9067	167.55291074958	39.799425396876
3	9082	167.75291074958	39.930571207753
3	9096	167.95291074958	40.120441084221
3	9105	168.15291074958	40.264181792753
3	9118	168.35291074958	40.234840962146
3	9131	168.55291074958	40.192041802183
3	9146	168.75291074958	40.341006219241
3	9160	168.95291074958	40.530048470668
3	9167	169.15291074958	40.51600330279
3	9174	169.35291074958	40.481190901943
3	9179	169.55291074958	40.48808389879
3	9186	169.75291074958	40.131308874776
3	9197	169.95291074958	40.222052238821
3	9214	170.15291074958	40.133491453221
3	9224	170.35291074958	40.250721134975
3	9228	170.55291074958	40.347444051768
3	9233	170.75291074958	40.342348079108
3	9246	170.95291074958	40.232228215651
3	9253	171.15291074958	40.248308383816
3	9263	171.35291074958	40.247266989519
3	9278	171.55291074958	40.366882170218
3	9286	171.75291074958	40.410912572138
3	9297	171.95291074958	40.090315810058
3	9311	172.15291074958	40.02570270123
3	9320	172.35291074958	40.158016881456
3	9327	172.55291074958	39.969542959631
3	9340	172.75291074958	40.093534477546
3	9349	172.95291074958	40.286469586888
3	9358	173.15291074958	40.285166625711
3	9362	173.35291074958	40.44544928471
3	9369	173.55291074958	40.491747360373
3	9378	173.75291074958	40.276375687947
3	9396	173.95291074958	40.223292944633
3	9412	174.15291074958	40.378686915447
3	9422	174.35291074958	39.943734545997
3	9434	174.55291074958	40.071602812352
3	9448	174.75291074958	39.750674456467
3	9458	174.95291074958	39.771500964941
3	9467	175.15291074958	39.61850074973
3	9478	175.35291074958	39.477444674727
3	9486	175.55291074958	39.624679566913
3	9497	175.75291074958	39.805323791435
3	9512	175.95291074958	39.28086575424
3	9520	176.15291074958	39.439394846758
3	9533	176.35291074958	39.59635848245
3	9548	176.55291074958	39.757491644068
3	9562	176.75291074958	39.940699962896
3	9578	176.95291074958	40.03984252759
3	9590	177.15291074958	39.787597286762
3	9600	177.35291074958	39.654415159282
3	9612	177.55291074958	39.814542676929
3	9620	177.75291074958	39.948042517529
3	9634	177.95291074958	39.972477158027
3	9650	178.15291074958	40.099499287063
3	9660	178.35291074958	40.290480031693
3	9674	178.55291074958	40.117635369041
3	9687	178.75291074958	40.120840906878
3	9700	178.95291074958	40.302716197439
3	9707	179.15291074958	40.182510838258
3	9720	179.35291074958	40.232915999633
3	9731	179.55291074958	40.385207817854
3	9747	179.75291074958	40.49235500286
3	9762	179.95291074958	40.55170392577
3	9770	180.15291074958	40.48566087035
3	9772	180.35291074958	40.473958190598
3	9774	180.55291074958	40.407569897506
3	9776	180.75291074958	40.412930583575
3	9788	180.95291074958	40.505770565316
3	9802	181.15291074958	40.380086683113
3	9818	181.35291074958	40.30595774294
3	9828	181.55291074958	40.40018751967
3	9836	181.75291074958	40.399052260981
3	9841	181.95291074958	40.372787656579
3	9848	182.15291074958	40.144173854407
3	9850	182.35291074958	40.310417480328
3	9860	182.55291074958	40.359650133042
3	9876	182.75291074958	40.137429127363
3	9892	182.95291074958	40.227445326561
3	9902	183.15291074958	40.004908567066
3	9913	183.35291074958	40.1405717917
3	9925	183.55291074958	40.132168015658
3	9938	183.75291074958	40.328428801299
3	9954	183.95291074958	40.348045199593
3	9964	184.15291074958	40.007732205631
3	9975	184.35291074958	40.186523238721
3	9992	184.55291074958	39.608753825266
3	10002	184.75291074958	39.624145997611
3	10009	184.95291074958	39.733972800653
3	10020	185.15291074958	39.748770819245
3	10034	185.35291074958	39.937744862632
3	10044	185.55291074958	39.995829601444
3	10048	185.75291074958	40.14386460232
3	10056	185.95291074958	40.176695867563
3	10072	186.15291074958	40.351901915715
3	10086	186.35291074958	40.462902330476
3	10098	186.55291074958	40.403194707827
3	10110	186.75291074958	40.510781984067
3	10121	186.95291074958	40.555976774535
3	10136	187.15291074958	40.199793079704
3	10150	187.35291074958	40.061171561091
3	10158	187.55291074958	40.249892789716
3	10160	187.75291074958	39.934549280844
3	10162	187.95291074958	40.131625886901
3	10164	188.15291074958	40.21288452271
3	10169	188.35291074958	39.829248009149
3	10176	188.55291074958	39.981046963719
3	10178	188.75291074958	40.156937457634
3	10185	188.95291074958	40.222379505518
3	10196	189.15291074958	40.377476555077
3	10210	189.35291074958	40.236870038967
3	10214	189.55291074958	40.400458223363
3	10222	189.75291074958	40.392047724876
3	10232	189.95291074958	39.913665962453
3	10242	190.15291074958	40.06611935547
3	10254	190.35291074958	40.218293198208
3	10262	190.55291074958	40.327125483591
3	10264	190.75291074958	40.00076595094
3	10275	190.95291074958	40.12371310895
3	10284	191.15291074958	40.319838902286
3	10289	191.35291074958	40.477003564211
3	10296	191.55291074958	40.348556557027
3	10301	191.75291074958	40.257850849738
3	10307	191.95291074958	40.402108486514
3	10318	192.15291074958	40.483266327406
3	10338	192.35291074958	40.345392396895
3	10354	192.55291074958	40.429703564758
3	10372	192.75291074958	40.27402272227
3	10384	192.95291074958	40.41316377069
3	10394	193.15291074958	40.1663275102
3	10406	193.35291074958	39.854088774835
3	10420	193.55291074958	39.756666887794
3	10430	193.75291074958	39.928974506858
3	10441	193.95291074958	40.121487166494
3	10458	194.15291074958	39.973858257109
3	10472	194.35291074958	40.12997566693
3	10482	194.55291074958	40.269918437211
3	10493	194.75291074958	40.38129315415
3	10503	194.95291074958	40.251243756083
3	10510	195.15291074958	40.434666374593
3	10512	195.35291074958	40.462645344992
3	10520	195.55291074958	40.353332893331
3	10529	195.75291074958	40.3088101316
3	10538	195.95291074958	40.395528358936
3	10545	196.15291074958	40.015178927661
3	10558	196.35291074958	40.029224215569
3	10562	196.55291074958	39.894178237904
3	10564	196.75291074958	40.059780662158
3	10572	196.95291074958	40.090212082411
3	10576	197.15291074958	40.227498333569
3	10586	197.35291074958	40.274655356408
3	10599	197.55291074958	40.305491291372
3	10612	197.75291074958	40.386260365962
3	10624	197.95291074958	40.269174343765
3	10640	198.15291074958	40.421415391357
3	10652	198.35291074958	40.479659270715
3	10659	198.55291074958	40.338812945696
3	10666	198.75291074958	40.383005648671
3	10680	198.95291074958	40.397150172564
3	10694	199.15291074958	40.542538003353
3	10710	199.35291074958	40.580104486109
3	10724	199.55291074958	40.662954567778
3	10734	199.75291074958	40.357594190419
3	10744	199.95291074958	40.476317687022
4	6669	122.305409158083	1
4	6681	122.505409158083	1
4	6695	122.705409158083	1
4	6713	122.905409158083	1
4	6727	123.105409158083	1
4	6745	123.305409158083	1
4	6759	123.505409158083	1
4	6773	123.705409158083	1
4	6791	123.905409158083	1
4	6801	124.105409158083	1
4	6811	124.305409158083	1
4	6823	124.505409158083	1
4	6837	124.705409158083	1
4	6847	124.905409158083	1
4	6857	125.105409158083	1
4	6877	125.51586132916	1
4	6956	127.118254022814	1
4	7043	128.861068947397	1
4	7057	129.061068947397	1
4	7071	129.261068947397	1
4	7079	129.461068947397	1
4	7139	130.527013652082	1
4	7150	130.727013652082	1
4	7195	131.505843760061	1
4	7279	133.283567789949	1
4	7567	139.520194749947	1
4	7579	139.720194749947	1
4	7593	139.920194749947	1
4	7605	140.120194749947	1
4	7619	140.320194749947	1
4	7635	140.520194749947	1
4	7645	140.720194749947	1
4	7679	141.34715300664	1
4	7704	141.658749120924	1
4	7745	142.512743946734	1
4	7815	143.920942733922	1
4	7933	146.304339930335	1
4	7949	146.504339930335	1
4	7959	146.704339930335	1
4	7967	146.904339930335	1
4	8093	149.516240710613	1
4	8101	149.716240710613	1
4	8190	151.510296590759	1
4	8215	151.895259899842	1
4	8241	152.319375091895	1
4	8256	152.531708775902	1
4	8277	152.87908802731	1
4	8387	155.101866993497	1
4	8401	155.301866993497	1
4	8412	155.501866993497	1
4	8437	155.903664179366	1
4	8553	158.083936405815	1
4	8566	158.283936405815	1
4	8581	158.514297803884	1
4	8611	158.855960577016	1
4	8625	159.055960577016	1
4	8635	159.255960577016	1
4	8646	159.455960577016	1
4	8671	159.695516559161	1
4	8685	159.895516559161	1
4	8695	160.095516559161	1
4	8707	160.295516559161	1
4	8723	160.495516559161	1
4	8733	160.695516559161	1
4	8771	161.317629280493	1
4	8785	161.517629280493	1
4	8797	161.717629280493	1
4	8809	161.917629280493	1
4	8863	162.932997245881	1
4	8873	163.132997245881	1
4	9055	166.933906622961	1
4	9145	168.678445087429	1
4	9156	168.878445087429	1
4	9421	174.348310902331	1
4	9433	174.548310902331	1
4	9447	174.748310902331	1
4	9457	174.948310902331	1
4	9485	175.480261807806	1
4	9519	176.099468425542	1
4	9561	176.717078324774	1
4	9577	176.917078324774	1
4	9589	177.117078324774	1
4	9599	177.317078324774	1
4	9619	177.74583584478	1
4	9659	178.30463586007	1
4	9671	178.50463586007	1
4	9683	178.70463586007	1
4	9699	178.91077232341	1
4	9730	179.538857326784	1
4	9761	179.949843222084	1
4	9769	180.149843222084	1
4	9909	183.330968978878	1
4	9949	183.879511315197	1
4	9963	184.079511315197	1
4	9971	184.279511315197	1
4	10001	184.691573047441	1
4	10043	185.466477947623	1
4	10097	186.476254382651	1
4	10109	186.676254382651	1
4	10120	186.876254382651	1
4	10149	187.31498304647	1
4	10157	187.51498304647	1
4	10469	194.286111695086	1
4	10481	194.486111695086	1
4	10489	194.686111695086	1
4	10723	199.519651957338	1
4	10733	199.719651957338	1
4	10743	199.919651957338	1

