file 7973108 1557543164                                         
version 2
run General-0-20190510-23:52:36-2897
attr configname General
attr datetime 20190510-23:52:36
attr experiment General
attr inifile omnetpp.ini
attr iterationvars ""
attr iterationvarsf ""
attr measurement ""
attr network Network
attr processid 2897
attr repetition 0
attr replication #0
attr resultdir results
attr runnumber 0
attr seedset 0
param Network.gen.generationInterval exponential(0.001)
param Network.queue.serviceTime exponential(0.001)

vector 0 Network.sink Delay ETV
0	491 1262968 4 131468 0.000795874505 32.762793755597 32768 0 0.134111631235 1952.1184973821 149.68734555545
0	1263459 1301096 131472 262789 32.763274500974 65.419402295637 32768 0 0.221020690311 2686.8633212247 302.64352519059
0	2564555 1300711 262791 394042 65.419536633439 98.525198151869 32768 0 0.300331321051 4202.1539693452 720.80825336947
0	3865266 1332598 394044 525521 98.525520634493 131.563945739447 32768 0 0.255925403643 2634.6717791583 278.93856179666
0	5197864 1335852 525523 656330 131.564524179174 164.301017577914 32768 0 0.25405419382 3356.8709945508 463.27487564798
0	6533716 1332104 656340 787848 164.302969773789 197.322880117712 32768 0 0.17660250145 1547.3478665138 107.96611920145
0	7865820 107287 787850 798280 197.323090132744 199.999008411653 2631 0.087355431151 0.206897725172 396.97318162758 61.710567007284

