file 8062938 1557545734                                         
version 2
run General-0-20190511-00:35:30-2418
attr configname General
attr datetime 20190511-00:35:30
attr experiment General
attr inifile omnetpp.ini
attr iterationvars ""
attr iterationvarsf ""
attr measurement ""
attr network Network
attr processid 2418
attr repetition 0
attr replication #0
attr resultdir results
attr runnumber 0
attr seedset 0
param Network.gen.generationInterval exponential(0.001)
param Network.nodeTx.gen.generationInterval exponential(0.001)
param Network.nodeRx.queue.serviceTime exponential(0.001)
param Network.nodeTx.queue.serviceTime exponential(0.001)
param Network.queue.serviceTime exponential(0.001)

vector 0 Network.nodeRx.sink Delay ETV
0	677 1279885 8 265466 0.000995874505 33.17838820916 32768 0.0002 0.72945399496 12097.183011273 6223.5639330995
0	1280562 1303290 265468 530921 33.178405389967 66.553213820838 32768 0.694616075225 1.500017092988 39352.128647948 48804.618066635
0	2583852 1303556 530923 793764 66.554736485583 99.502080777515 32768 1.446837171731 1.748539379196 50957.471964208 79405.603301298
0	3887408 1342547 793772 1055210 99.502575784335 132.039075385836 32768 1.411406827906 1.699563855562 50623.099765287 78332.082343306
0	5229955 1369026 1055223 1317334 132.040096838512 164.77017550832 32768 1.349210172145 1.755564775031 50462.804651965 78005.91930655
0	6598981 1368929 1317342 1580707 164.771589802698 197.714017876498 32768 1.686676707438 2.030410602937 60279.385135044 111136.86379372
0	7967910 95027 1580713 1598740 197.715062489429 199.999561072307 2275 1.837226822738 1.939272688444 4304.6641918946 8145.9255593645

